Constructor called
WARNING: physical memory size is smaller than virtual memory size.
WARNING: option --warmup_instructions is deprecated. Use --warmup-instructions instead.
WARNING: option --simulation_instructions is deprecated. Use --simulation-instructions instead.

*** ChampSim Multicore Out-of-Order Simulator ***
Warmup Instructions: 3500000
Simulation Instructions: 3500000
Number of CPUs: 1
Page size: 4096

Constructor called
Off-chip DRAM Size: 4 GiB Channels: 1 Width: 64-bit Data Race: 3200 MT/s
Address = 4718213 I am cpu0_ITLB
Address = 4718213 I am cpu0_STLB
Address = 1048576 I am cpu0_L1D
Address = 1052672 I am cpu0_L1D
Address = 4720547 I am cpu0_ITLB
Address = 4720547 I am cpu0_STLB
Address = 1056768 I am cpu0_L1D
Address = 1060880 I am cpu0_L1D
Address = 1065976 I am cpu0_L1D
Address = 1070080 I am cpu0_L1D
Address = 1080965 I am cpu0_L1I
Address = 1081057 I am cpu0_L1I
Address = 1079043 I am cpu0_L1I
Address = 1078703 I am cpu0_L1I
Address = 1078721 I am cpu0_L1I
Address = 1078824 I am cpu0_L1I
Address = 1083299 I am cpu0_L1I
Address = 4726317 I am cpu0_ITLB
Address = 1083328 I am cpu0_L1I
Address = 4726317 I am cpu0_STLB
Address = 1072680 I am cpu0_L1D
Address = 1079108 I am cpu0_L1I
Address = 54514378 I am cpu0_DTLB
Address = 1080840 I am cpu0_L1I
Address = 1080936 I am cpu0_L1I
Address = 54514378 I am cpu0_STLB
Address = 53912360 I am cpu0_DTLB
Address = 1064936 I am cpu0_L1D
Address = 53912360 I am cpu0_STLB
Address = 1063760 I am cpu0_L1D
Address = 1089069 I am cpu0_L1I
Address = 5696920 I am cpu0_DTLB
Address = 5696920 I am cpu0_STLB
Address = 8216672 I am cpu0_DTLB
Address = 140726619485599 I am cpu0_DTLB
Address = 1072536 I am cpu0_L1D
Address = 8216672 I am cpu0_STLB
Address = 1077224 I am cpu0_L1D
Address = 1064624 I am cpu0_L1D
Address = 140726619485599 I am cpu0_STLB
Address = 1092432 I am cpu0_L1D
Address = 1056680 I am cpu0_L1D
Address = 1101208 I am cpu0_L1D
Address = 1102538 I am cpu0_L1D
Address = 1110824 I am cpu0_L1D
Address = 1110848 I am cpu0_L1D
Address = 1097392 I am cpu0_L1D
Address = 1109928 I am cpu0_L1D
Address = 8216088 I am cpu0_DTLB
Address = 8216088 I am cpu0_STLB
Address = 1097240 I am cpu0_L1D
Address = 1118992 I am cpu0_L1D
Address = 1118304 I am cpu0_L1D
Address = 1117704 I am cpu0_L1D
Address = 1102020 I am cpu0_L1D
Address = 1130008 I am cpu0_L1D
Address = 1129760 I am cpu0_L1D
Address = 1123608 I am cpu0_L1D
Address = 1136031 I am cpu0_L1D
Address = 1136116 I am cpu0_L1D
Address = 1102592 I am cpu0_L1D
Address = 1102656 I am cpu0_L1D
Address = 1084161 I am cpu0_L1I
Address = 4727913 I am cpu0_ITLB
Address = 4727913 I am cpu0_STLB
Address = 1070184 I am cpu0_L1D
Address = 1101352 I am cpu0_L1D
Address = 1084224 I am cpu0_L1I
Address = 1080720 I am cpu0_L1I
Address = 1078608 I am cpu0_L1I
Address = 1129280 I am cpu0_L1D
Address = 1139817 I am cpu0_L1I
Address = 1139841 I am cpu0_L1I
Address = 1083565 I am cpu0_L1I
Address = 1083584 I am cpu0_L1I
Address = 4754928 I am cpu0_ITLB
Address = 4754928 I am cpu0_STLB
Address = 1072624 I am cpu0_L1D
Address = 1129144 I am cpu0_L1D
Address = 1146392 I am cpu0_L1I
Address = 1146434 I am cpu0_L1I
Address = 1146352 I am cpu0_L1I
Address = 120755785 I am cpu0_DTLB
Address = 1083649 I am cpu0_L1I
Address = 120755785 I am cpu0_STLB
Address = 1063240 I am cpu0_L1D
Address = 1102725 I am cpu0_L1D
Address = 1132872 I am cpu0_L1D
Address = 1152585 I am cpu0_L1D
Address = 1120116 I am cpu0_L1D
Address = 1129072 I am cpu0_L1D
Address = 1135928 I am cpu0_L1D
Address = 1135567 I am cpu0_L1D
Address = 1135652 I am cpu0_L1D
Address = 1135548 I am cpu0_L1D
Address = 1135464 I am cpu0_L1D
Address = 1110920 I am cpu0_L1D
Address = 1086996 I am cpu0_L1I
Address = 1080769 I am cpu0_L1I
Address = 1102789 I am cpu0_L1D
Address = 1110976 I am cpu0_L1D
Address = 4750608 I am cpu0_ITLB
Address = 4750608 I am cpu0_STLB
Address = 1072400 I am cpu0_L1D
Address = 1143200 I am cpu0_L1I
Address = 1158448 I am cpu0_L1I
Address = 1158466 I am cpu0_L1I
Address = 1158528 I am cpu0_L1I
Address = 5697840 I am cpu0_DTLB
Address = 5697840 I am cpu0_STLB
Address = 1069360 I am cpu0_L1D
Address = 1159472 I am cpu0_L1D
Address = 1102850 I am cpu0_L1D
Address = 1103033 I am cpu0_L1D
Address = 1103040 I am cpu0_L1D
Address = 1086875 I am cpu0_L1I
Address = 1136344 I am cpu0_L1D
Address = 1136384 I am cpu0_L1D
Address = 1136556 I am cpu0_L1D
Address = 1086816 I am cpu0_L1I
Address = 1136580 I am cpu0_L1D
Address = 1136464 I am cpu0_L1D
Address = 1102126 I am cpu0_L1D
Address = 1102150 I am cpu0_L1D
Address = 1102208 I am cpu0_L1D
Address = 1102325 I am cpu0_L1D
Address = 1102337 I am cpu0_L1D
Address = 1087471 I am cpu0_L1I
Address = 1087490 I am cpu0_L1I
Address = 1087584 I am cpu0_L1I
Address = 1087662 I am cpu0_L1I
Address = 1087682 I am cpu0_L1I
Address = 1079020 I am cpu0_L1I
Address = 1101016 I am cpu0_L1D
Address = 1102410 I am cpu0_L1D
Address = 1102509 I am cpu0_L1D
Address = 1089091 I am cpu0_L1I
Address = 1119472 I am cpu0_L1D
Address = 1152575 I am cpu0_L1D
Address = 4732289 I am cpu0_ITLB
Address = 4732289 I am cpu0_STLB
Address = 1157323 I am cpu0_L1I
Address = 4746930 I am cpu0_ITLB
Address = 1070464 I am cpu0_L1D
Address = 4746930 I am cpu0_STLB
Address = 1072816 I am cpu0_L1D
Address = 4577979 I am cpu0_ITLB
Address = 4577979 I am cpu0_STLB
Address = 1071800 I am cpu0_L1D
Address = 1164673 I am cpu0_L1I
Address = 1171122 I am cpu0_L1I
Address = 1171140 I am cpu0_L1I
Address = 1170684 I am cpu0_L1I
Address = 1170690 I am cpu0_L1I
Address = 1170800 I am cpu0_L1I
Address = 1170816 I am cpu0_L1I
Address = 1174203 I am cpu0_L1I
Address = 1174210 I am cpu0_L1I
Address = 1173479 I am cpu0_L1I
Address = 1173520 I am cpu0_L1I
Address = 1173568 I am cpu0_L1I
Address = 1158162 I am cpu0_L1I
Address = 4566320 I am cpu0_ITLB
Address = 4566320 I am cpu0_STLB
Address = 1179027 I am cpu0_L1I
Address = 1178928 I am cpu0_L1I
Address = 1178944 I am cpu0_L1I
Address = 1179074 I am cpu0_L1I
Address = 4567200 I am cpu0_ITLB
Address = 1136808 I am cpu0_L1D
Address = 4567200 I am cpu0_STLB
Address = 1136832 I am cpu0_L1D
Address = 1069216 I am cpu0_L1D
Address = 1137020 I am cpu0_L1D
Address = 1137044 I am cpu0_L1D
Address = 1136952 I am cpu0_L1D
Address = 1137272 I am cpu0_L1D
Address = 1137280 I am cpu0_L1D
Address = 4571200 I am cpu0_ITLB
Address = 4571200 I am cpu0_STLB
Address = 1179808 I am cpu0_L1I
Address = 1179842 I am cpu0_L1I
Address = 1069120 I am cpu0_L1D
Address = 1179910 I am cpu0_L1I
Address = 1137344 I am cpu0_L1D
Address = 1118740 I am cpu0_L1D
Address = 1129584 I am cpu0_L1D
Address = 1137528 I am cpu0_L1D
Address = 1137536 I am cpu0_L1D
Address = 1137608 I am cpu0_L1D
Address = 1137676 I am cpu0_L1D
Address = 1184325 I am cpu0_L1I
Address = 1183808 I am cpu0_L1I
Address = 1183876 I am cpu0_L1I
Address = 1130104 I am cpu0_L1D
Address = 1184112 I am cpu0_L1I
Address = 54513104 I am cpu0_DTLB
Address = 1137736 I am cpu0_L1D
Address = 1184272 I am cpu0_L1I
Address = 54513104 I am cpu0_STLB
Address = 1184704 I am cpu0_L1I
Address = 8202872 I am cpu0_DTLB
Address = 4204592 I am cpu0_ITLB
Address = 1093072 I am cpu0_L1D
Address = 8202872 I am cpu0_STLB
Address = 54518656 I am cpu0_DTLB
Address = 1096312 I am cpu0_L1D
Address = 54518656 I am cpu0_STLB
Address = 1090432 I am cpu0_L1D
Address = 4204592 I am cpu0_STLB
Address = 1118428 I am cpu0_L1D
Address = 1071152 I am cpu0_L1D
Address = 36197680 I am cpu0_DTLB
Address = 36197680 I am cpu0_STLB
Address = 1061928 I am cpu0_L1D
Address = 1130488 I am cpu0_L1D
Address = 36205872 I am cpu0_DTLB
Address = 36205872 I am cpu0_STLB
Address = 36212504 I am cpu0_DTLB
Address = 1120304 I am cpu0_L1D
Address = 1184385 I am cpu0_L1I
Address = 36212504 I am cpu0_STLB
Address = 1191376 I am cpu0_L1D
Address = 1061952 I am cpu0_L1D
Address = 1194616 I am cpu0_L1D
Address = 1184453 I am cpu0_L1I
Address = 4771072 I am cpu0_ITLB
Address = 1196928 I am cpu0_L1D
Address = 4771072 I am cpu0_STLB
Address = 1196912 I am cpu0_L1D
Address = 1197520 I am cpu0_L1D
Address = 1147944 I am cpu0_L1D
Address = 1202224 I am cpu0_L1I
Address = 1202241 I am cpu0_L1I
Address = 1205304 I am cpu0_L1D
Address = 1202310 I am cpu0_L1I
Address = 8193312 I am cpu0_DTLB
Address = 1202370 I am cpu0_L1I
Address = 8193312 I am cpu0_STLB
Address = 1215744 I am cpu0_L1I
Address = 1094944 I am cpu0_L1D
Address = 52323996 I am cpu0_DTLB
Address = 1209408 I am cpu0_L1D
Address = 52323996 I am cpu0_STLB
Address = 1064752 I am cpu0_L1D
Address = 1197472 I am cpu0_L1D
Address = 1119536 I am cpu0_L1D
Address = 51520636 I am cpu0_DTLB
Address = 51520636 I am cpu0_STLB
Address = 51988024 I am cpu0_DTLB
Address = 1118216 I am cpu0_L1D
Address = 1221936 I am cpu0_L1D
Address = 51988024 I am cpu0_STLB
Address = 1063184 I am cpu0_L1D
Address = 1064096 I am cpu0_L1D
Address = 1226032 I am cpu0_L1D
Address = 1215952 I am cpu0_L1I
Address = 1216056 I am cpu0_L1I
Address = 1184183 I am cpu0_L1I
Address = 1184193 I am cpu0_L1I
Address = 1230112 I am cpu0_L1D
Address = 185595464 I am cpu0_DTLB
Address = 1236760 I am cpu0_L1D
Address = 185595464 I am cpu0_STLB
Address = 1236848 I am cpu0_L1D
Address = 1236872 I am cpu0_L1D
Address = 1220400 I am cpu0_L1D
Address = 1062904 I am cpu0_L1D
Address = 188846812 I am cpu0_DTLB
Address = 1239312 I am cpu0_L1D
Address = 188846812 I am cpu0_STLB
Address = 1244320 I am cpu0_L1D
Address = 1061064 I am cpu0_L1D
Address = 36242032 I am cpu0_DTLB
Address = 36242032 I am cpu0_STLB
Address = 72329480 I am cpu0_DTLB
Address = 1208944 I am cpu0_L1D
Address = 72329480 I am cpu0_STLB
Address = 4562208 I am cpu0_ITLB
Address = 4562208 I am cpu0_STLB
Address = 1252711 I am cpu0_L1I
Address = 1252737 I am cpu0_L1I
Address = 1252640 I am cpu0_L1I
Address = 1173168 I am cpu0_L1I
Address = 1197360 I am cpu0_L1D
Address = 1255068 I am cpu0_L1D
Address = 1173185 I am cpu0_L1I
Address = 1247224 I am cpu0_L1D
Address = 1259472 I am cpu0_L1D
Address = 1266812 I am cpu0_L1D
Address = 1173248 I am cpu0_L1I
Address = 1271352 I am cpu0_L1D
Address = 1271416 I am cpu0_L1D
Address = 1278576 I am cpu0_L1D
Address = 1261768 I am cpu0_L1D
Address = 1221976 I am cpu0_L1D
Address = 1173314 I am cpu0_L1I
Address = 36201728 I am cpu0_DTLB
Address = 1197392 I am cpu0_L1D
Address = 36201728 I am cpu0_STLB
Address = 1197056 I am cpu0_L1D
Address = 1173389 I am cpu0_L1I
Address = 1283656 I am cpu0_L1D
Address = 1288456 I am cpu0_L1D
Address = 1209600 I am cpu0_L1D
Address = 1173808 I am cpu0_L1I
Address = 1173826 I am cpu0_L1I
Address = 4579349 I am cpu0_ITLB
Address = 4579349 I am cpu0_STLB
Address = 1197040 I am cpu0_L1D
Address = 1174837 I am cpu0_L1I
Address = 1069072 I am cpu0_L1D
Address = 1175160 I am cpu0_L1I
Address = 1175174 I am cpu0_L1I
Address = 1191456 I am cpu0_L1D
Address = 1173901 I am cpu0_L1I
Address = 1290972 I am cpu0_L1D
Address = 1173952 I am cpu0_L1I
Address = 36185584 I am cpu0_DTLB
Address = 1118600 I am cpu0_L1D
Address = 36185584 I am cpu0_STLB
Address = 1278520 I am cpu0_L1D
Address = 1209840 I am cpu0_L1D
Address = 1175102 I am cpu0_L1I
Address = 38736560 I am cpu0_DTLB
Address = 38736560 I am cpu0_STLB
Address = 1062792 I am cpu0_L1D
Address = 1174079 I am cpu0_L1I
Address = 1295616 I am cpu0_L1D
Address = 1174083 I am cpu0_L1I
Address = 139627252301096 I am cpu0_DTLB
Address = 139627252301096 I am cpu0_STLB
Address = 1129944 I am cpu0_L1D
Address = 1102012 I am cpu0_L1D
Address = 4741648 I am cpu0_ITLB
Address = 1175238 I am cpu0_L1I
Address = 4741648 I am cpu0_STLB
Address = 1298453 I am cpu0_L1I
Address = 1277872 I am cpu0_L1D
Address = 1071632 I am cpu0_L1D
Address = 1308144 I am cpu0_L1D
Address = 1304456 I am cpu0_L1D
Address = 1130329 I am cpu0_L1D
Address = 1310768 I am cpu0_L1D
Address = 1321511 I am cpu0_L1I
Address = 1321539 I am cpu0_L1I
Address = 1129448 I am cpu0_L1D
Address = 1323696 I am cpu0_L1D
Address = 1321680 I am cpu0_L1I
Address = 1315608 I am cpu0_L1D
Address = 1321602 I am cpu0_L1I
Address = 1321729 I am cpu0_L1I
Address = 1167472 I am cpu0_L1I
Address = 1167491 I am cpu0_L1I
Address = 1321797 I am cpu0_L1I
Address = 1167664 I am cpu0_L1I
Address = 1230168 I am cpu0_L1D
Address = 1334568 I am cpu0_L1D
Address = 1167681 I am cpu0_L1I
Address = 1168840 I am cpu0_L1I
Address = 1169493 I am cpu0_L1I
Address = 1168975 I am cpu0_L1I
Address = 1169029 I am cpu0_L1I
Address = 1168406 I am cpu0_L1I
Address = 1196040 I am cpu0_L1D
Address = 1119408 I am cpu0_L1D
Address = 1170464 I am cpu0_L1I
Address = 1170500 I am cpu0_L1I
Address = 58187360 I am cpu0_DTLB
Address = 1266911 I am cpu0_L1D
Address = 1170578 I am cpu0_L1I
Address = 58187360 I am cpu0_STLB
Address = 1196400 I am cpu0_L1D
Address = 1063912 I am cpu0_L1D
Address = 1170884 I am cpu0_L1I
Address = 1330152 I am cpu0_L1D
Address = 1170944 I am cpu0_L1I
Address = 1171014 I am cpu0_L1I
Address = 1343072 I am cpu0_L1D
Address = 1164416 I am cpu0_L1I
Address = 1164482 I am cpu0_L1I
Address = 1164544 I am cpu0_L1I
Address = 1164658 I am cpu0_L1I
Address = 1308240 I am cpu0_L1D
Address = 1279192 I am cpu0_L1D
Address = 1279248 I am cpu0_L1D
Address = 1081423 I am cpu0_L1I
Address = 1079324 I am cpu0_L1I
Address = 1101936 I am cpu0_L1D
Address = 1083248 I am cpu0_L1I
Address = 1082717 I am cpu0_L1I
Address = 1086443 I am cpu0_L1I
Address = 1086465 I am cpu0_L1I
Address = 1082834 I am cpu0_L1I
Address = 1086564 I am cpu0_L1I
Address = 4711168 I am cpu0_ITLB
Address = 4711168 I am cpu0_STLB
Address = 1069824 I am cpu0_L1D
Address = 1137416 I am cpu0_L1D
Address = 1344256 I am cpu0_L1I
Address = 1344324 I am cpu0_L1I
Address = 1100960 I am cpu0_L1D
Address = 1345888 I am cpu0_L1I
Address = 1344448 I am cpu0_L1I
Address = 1086593 I am cpu0_L1I
Address = 1086659 I am cpu0_L1I
Address = 1086925 I am cpu0_L1I
Address = 1101264 I am cpu0_L1D
Address = 1100289 I am cpu0_L1D
Address = 1082756 I am cpu0_L1I
Address = 1100920 I am cpu0_L1D
Address = 1119928 I am cpu0_L1D
Address = 1344512 I am cpu0_L1I
Address = 1346592 I am cpu0_L1I
Address = 1129600 I am cpu0_L1D
Address = 1346652 I am cpu0_L1I
Address = 4708352 I am cpu0_ITLB
Address = 1129152 I am cpu0_L1D
Address = 4708352 I am cpu0_STLB
Address = 1119552 I am cpu0_L1D
Address = 1118960 I am cpu0_L1D
Address = 1349731 I am cpu0_L1I
Address = 1349632 I am cpu0_L1I
Address = 55864128 I am cpu0_DTLB
Address = 1350198 I am cpu0_L1I
Address = 1350208 I am cpu0_L1I
Address = 55864128 I am cpu0_STLB
Address = 1120152 I am cpu0_L1D
Address = 1350592 I am cpu0_L1I
Address = 1063472 I am cpu0_L1D
Address = 1350016 I am cpu0_L1I
Address = 1100287 I am cpu0_L1D
Address = 1337904 I am cpu0_L1D
Address = 1100792 I am cpu0_L1D
Address = 1358656 I am cpu0_L1D
Address = 1136312 I am cpu0_L1D
Address = 1136192 I am cpu0_L1D
Address = 1136191 I am cpu0_L1D
Address = 1152640 I am cpu0_L1D
Address = 1350768 I am cpu0_L1I
Address = 1343584 I am cpu0_L1I
Address = 1344432 I am cpu0_L1I
Address = 189122012 I am cpu0_DTLB
Address = 189122012 I am cpu0_STLB
Address = 1263064 I am cpu0_L1D
Address = 1361372 I am cpu0_L1D
Address = 47651448 I am cpu0_DTLB
Address = 47651448 I am cpu0_STLB
Address = 1063816 I am cpu0_L1D
Address = 1354632 I am cpu0_L1D
Address = 1370744 I am cpu0_L1D
Address = 177825792 I am cpu0_DTLB
Address = 177825792 I am cpu0_STLB
Address = 1367216 I am cpu0_L1D
Address = 1378307 I am cpu0_L1D
Address = 161284588 I am cpu0_DTLB
Address = 161284588 I am cpu0_STLB
Address = 1375872 I am cpu0_L1D
Address = 1384940 I am cpu0_L1D
Address = 55053896 I am cpu0_DTLB
Address = 55053896 I am cpu0_STLB
Address = 1338952 I am cpu0_L1D
Address = 1392200 I am cpu0_L1D
Address = 1378368 I am cpu0_L1D
Address = 189113724 I am cpu0_DTLB
Address = 189113724 I am cpu0_STLB
Address = 1262968 I am cpu0_L1D
Address = 1394044 I am cpu0_L1D
Address = 48111040 I am cpu0_DTLB
Address = 48111040 I am cpu0_STLB
Address = 1355200 I am cpu0_L1D
Address = 1400256 I am cpu0_L1D
Address = 1400248 I am cpu0_L1D
Address = 1378432 I am cpu0_L1D
Address = 188926636 I am cpu0_DTLB
Address = 188926636 I am cpu0_STLB
Address = 1264296 I am cpu0_L1D
Address = 1403564 I am cpu0_L1D
Address = 47653688 I am cpu0_DTLB
Address = 47653688 I am cpu0_STLB
Address = 1352504 I am cpu0_L1D
Address = 1405752 I am cpu0_L1D
Address = 189016896 I am cpu0_DTLB
Address = 189016896 I am cpu0_STLB
Address = 1264448 I am cpu0_L1D
Address = 1411904 I am cpu0_L1D
Address = 102514652 I am cpu0_DTLB
Address = 102514652 I am cpu0_STLB
Address = 1064472 I am cpu0_L1D
Address = 1383960 I am cpu0_L1D
Address = 1421276 I am cpu0_L1D
Address = 40905968 I am cpu0_DTLB
Address = 40905968 I am cpu0_STLB
Address = 1062928 I am cpu0_L1D
Address = 1415184 I am cpu0_L1D
Address = 1428720 I am cpu0_L1D
Address = 1411968 I am cpu0_L1D
Address = 1291868 I am cpu0_L1D
Address = 48612144 I am cpu0_DTLB
Address = 48612144 I am cpu0_STLB
Address = 1061600 I am cpu0_L1D
Address = 1422048 I am cpu0_L1D
Address = 1434416 I am cpu0_L1D
Address = 1412032 I am cpu0_L1D
Address = 1283712 I am cpu0_L1D
Address = 83699564 I am cpu0_DTLB
Address = 83699564 I am cpu0_STLB
Address = 1433232 I am cpu0_L1D
Address = 1443692 I am cpu0_L1D
Address = 47140392 I am cpu0_DTLB
Address = 47140392 I am cpu0_STLB
Address = 1355304 I am cpu0_L1D
Address = 1449512 I am cpu0_L1D
Address = 189041408 I am cpu0_DTLB
Address = 189041408 I am cpu0_STLB
Address = 1264384 I am cpu0_L1D
Address = 1452803 I am cpu0_L1D
Address = 73003164 I am cpu0_DTLB
Address = 73003164 I am cpu0_STLB
Address = 1257624 I am cpu0_L1D
Address = 1454236 I am cpu0_L1D
Address = 47758280 I am cpu0_DTLB
Address = 47758280 I am cpu0_STLB
Address = 1354696 I am cpu0_L1D
Address = 1461192 I am cpu0_L1D
Address = 1452864 I am cpu0_L1D
Address = 1394764 I am cpu0_L1D
Address = 1370576 I am cpu0_L1D
Address = 189063712 I am cpu0_DTLB
Address = 189063712 I am cpu0_STLB
Address = 1262112 I am cpu0_L1D
Address = 1462816 I am cpu0_L1D
Address = 102541276 I am cpu0_DTLB
Address = 102541276 I am cpu0_STLB
Address = 1382360 I am cpu0_L1D
Address = 1468380 I am cpu0_L1D
Address = 48570064 I am cpu0_DTLB
Address = 48570064 I am cpu0_STLB
Address = 1425104 I am cpu0_L1D
Address = 1474256 I am cpu0_L1D
Address = 1462880 I am cpu0_L1D
Address = 122778364 I am cpu0_DTLB
Address = 122778364 I am cpu0_STLB
Address = 1063096 I am cpu0_L1D
Address = 1439928 I am cpu0_L1D
Address = 1479420 I am cpu0_L1D
Address = 48301488 I am cpu0_DTLB
Address = 48301488 I am cpu0_STLB
Address = 1422768 I am cpu0_L1D
Address = 1484208 I am cpu0_L1D
Address = 85188208 I am cpu0_DTLB
Address = 85188208 I am cpu0_STLB
Address = 1063400 I am cpu0_L1D
Address = 1477096 I am cpu0_L1D
Address = 1494640 I am cpu0_L1D
Address = 1494656 I am cpu0_L1D
Address = 189190268 I am cpu0_DTLB
Address = 189190268 I am cpu0_STLB
Address = 1261688 I am cpu0_L1D
Address = 1495164 I am cpu0_L1D
Address = 47469720 I am cpu0_DTLB
Address = 47469720 I am cpu0_STLB
Address = 1352856 I am cpu0_L1D
Address = 1500312 I am cpu0_L1D
Address = 1494720 I am cpu0_L1D
Address = 188079260 I am cpu0_DTLB
Address = 188079260 I am cpu0_STLB
Address = 1063656 I am cpu0_L1D
Address = 1489640 I am cpu0_L1D
Address = 1510556 I am cpu0_L1D
Address = 47804624 I am cpu0_DTLB
Address = 47804624 I am cpu0_STLB
Address = 1351888 I am cpu0_L1D
Address = 1511632 I am cpu0_L1D
Address = 1494784 I am cpu0_L1D
Address = 189584620 I am cpu0_DTLB
Address = 189584620 I am cpu0_STLB
Address = 1262824 I am cpu0_L1D
Address = 1516780 I am cpu0_L1D
Address = 47436640 I am cpu0_DTLB
Address = 47436640 I am cpu0_STLB
Address = 1352544 I am cpu0_L1D
Address = 1520480 I am cpu0_L1D
Address = 58187360 I am cpu0_DTLB
Address = 188034208 I am cpu0_DTLB
Address = 188034208 I am cpu0_STLB
Address = 1490080 I am cpu0_L1D
Address = 1526944 I am cpu0_L1D
Address = 1283776 I am cpu0_L1D
Address = 119334476 I am cpu0_DTLB
Address = 119334476 I am cpu0_STLB
Address = 1064560 I am cpu0_L1D
Address = 1506928 I am cpu0_L1D
Address = 1533516 I am cpu0_L1D
Address = 1483032 I am cpu0_L1D
Address = 1527008 I am cpu0_L1D
Address = 97839100 I am cpu0_DTLB
Address = 97839100 I am cpu0_STLB
Address = 1063536 I am cpu0_L1D
Address = 1530480 I am cpu0_L1D
Address = 1542140 I am cpu0_L1D
Address = 48524760 I am cpu0_DTLB
Address = 48524760 I am cpu0_STLB
Address = 1424856 I am cpu0_L1D
Address = 1547736 I am cpu0_L1D
Address = 1527072 I am cpu0_L1D
Address = 55864128 I am cpu0_DTLB
Address = 52323996 I am cpu0_DTLB
Address = 188075788 I am cpu0_DTLB
Address = 188075788 I am cpu0_STLB
Address = 1490696 I am cpu0_L1D
Address = 1552140 I am cpu0_L1D
Address = 36201728 I am cpu0_DTLB
Address = 52139752 I am cpu0_DTLB
Address = 52139752 I am cpu0_STLB
Address = 1242856 I am cpu0_L1D
Address = 1554152 I am cpu0_L1D
Address = 189735968 I am cpu0_DTLB
Address = 189735968 I am cpu0_STLB
Address = 1262624 I am cpu0_L1D
Address = 1557539 I am cpu0_L1D
Address = 189177324 I am cpu0_DTLB
Address = 189177324 I am cpu0_STLB
Address = 1265128 I am cpu0_L1D
Address = 1564140 I am cpu0_L1D
Address = 53700984 I am cpu0_DTLB
Address = 53700984 I am cpu0_STLB
Address = 1091960 I am cpu0_L1D
Address = 1567096 I am cpu0_L1D
Address = 1167552 I am cpu0_L1I
Address = 95462848 I am cpu0_DTLB
Address = 95462848 I am cpu0_STLB
Address = 1062992 I am cpu0_L1D
Address = 1343128 I am cpu0_L1D
Address = 1538128 I am cpu0_L1D
Address = 1574336 I am cpu0_L1D
Address = 1479484 I am cpu0_L1D
Address = 47764096 I am cpu0_DTLB
Address = 47764096 I am cpu0_STLB
Address = 1352320 I am cpu0_L1D
Address = 1577600 I am cpu0_L1D
Address = 1577592 I am cpu0_L1D
Address = 1557600 I am cpu0_L1D
Address = 4518112 I am cpu0_ITLB
Address = 4518112 I am cpu0_STLB
Address = 1069280 I am cpu0_L1D
Address = 1581441 I am cpu0_L1I
Address = 1581280 I am cpu0_L1I
Address = 1581314 I am cpu0_L1I
Address = 1581376 I am cpu0_L1I
Address = 1581632 I am cpu0_L1I
Address = 4812912 I am cpu0_ITLB
Address = 4812912 I am cpu0_STLB
Address = 4807584 I am cpu0_ITLB
Address = 4807584 I am cpu0_STLB
Address = 1585264 I am cpu0_L1I
Address = 1585280 I am cpu0_L1I
Address = 1072032 I am cpu0_L1D
Address = 4808704 I am cpu0_ITLB
Address = 4808704 I am cpu0_STLB
Address = 1592224 I am cpu0_L1I
Address = 1592260 I am cpu0_L1I
Address = 1592323 I am cpu0_L1I
Address = 1593152 I am cpu0_L1I
Address = 4765360 I am cpu0_ITLB
Address = 1593344 I am cpu0_L1I
Address = 1595200 I am cpu0_L1I
Address = 4765360 I am cpu0_STLB
Address = 1070768 I am cpu0_L1D
Address = 1197632 I am cpu0_L1D
Address = 1599810 I am cpu0_L1I
Address = 1599152 I am cpu0_L1I
Address = 1599170 I am cpu0_L1I
Address = 1599232 I am cpu0_L1I
Address = 1599432 I am cpu0_L1I
Address = 1599300 I am cpu0_L1I
Address = 1599872 I am cpu0_L1I
Address = 1599376 I am cpu0_L1I
Address = 1592387 I am cpu0_L1I
Address = 1593408 I am cpu0_L1I
Address = 184054784 I am cpu0_DTLB
Address = 1129472 I am cpu0_L1D
Address = 184054784 I am cpu0_STLB
Address = 1063992 I am cpu0_L1D
Address = 1595040 I am cpu0_L1I
Address = 1598288 I am cpu0_L1I
Address = 1571896 I am cpu0_L1D
Address = 1598340 I am cpu0_L1I
Address = 1598472 I am cpu0_L1I
Address = 4952224 I am cpu0_ITLB
Address = 1606656 I am cpu0_L1D
Address = 4952224 I am cpu0_STLB
Address = 5273840 I am cpu0_ITLB
Address = 1162792 I am cpu0_L1D
Address = 5273840 I am cpu0_STLB
Address = 1071344 I am cpu0_L1D
Address = 1609888 I am cpu0_L1I
Address = 1616196 I am cpu0_L1I
Address = 1616112 I am cpu0_L1I
Address = 1616130 I am cpu0_L1I
Address = 5265952 I am cpu0_ITLB
Address = 1160312 I am cpu0_L1D
Address = 5265952 I am cpu0_STLB
Address = 1160232 I am cpu0_L1D
Address = 186004936 I am cpu0_DTLB
Address = 186004936 I am cpu0_STLB
Address = 1246664 I am cpu0_L1D
Address = 1620608 I am cpu0_L1I
Address = 1620512 I am cpu0_L1I
Address = 1620547 I am cpu0_L1I
Address = 1623496 I am cpu0_L1D
Address = 1620672 I am cpu0_L1I
Address = 1616256 I am cpu0_L1I
Address = 1609922 I am cpu0_L1I
Address = 1598400 I am cpu0_L1I
Address = 5287552 I am cpu0_ITLB
Address = 5287552 I am cpu0_STLB
Address = 1629824 I am cpu0_L1I
Address = 1193064 I am cpu0_L1D
Address = 1629960 I am cpu0_L1I
Address = 36177984 I am cpu0_DTLB
Address = 36177984 I am cpu0_STLB
Address = 8227260 I am cpu0_DTLB
Address = 8208192 I am cpu0_DTLB
Address = 1210432 I am cpu0_L1D
Address = 1593475 I am cpu0_L1I
Address = 8227260 I am cpu0_STLB
Address = 1096120 I am cpu0_L1D
Address = 1593538 I am cpu0_L1I
Address = 8208192 I am cpu0_STLB
Address = 1097536 I am cpu0_L1D
Address = 1632320 I am cpu0_L1D
Address = 1636796 I am cpu0_L1D
Address = 1642304 I am cpu0_L1D
Address = 1594744 I am cpu0_L1I
Address = 1594753 I am cpu0_L1I
Address = 8210480 I am cpu0_DTLB
Address = 1593601 I am cpu0_L1I
Address = 8210480 I am cpu0_STLB
Address = 116570040 I am cpu0_DTLB
Address = 1095728 I am cpu0_L1D
Address = 1594632 I am cpu0_L1I
Address = 116570040 I am cpu0_STLB
Address = 1603928 I am cpu0_L1D
Address = 1593112 I am cpu0_L1I
Address = 1585349 I am cpu0_L1I
Address = 1585408 I am cpu0_L1I
Address = 1648688 I am cpu0_L1D
Address = 1581696 I am cpu0_L1I
Address = 1652664 I am cpu0_L1D
Address = 1652672 I am cpu0_L1D
Address = 1581508 I am cpu0_L1I
Address = 1598016 I am cpu0_L1I
Address = 1598082 I am cpu0_L1I
Address = 1581574 I am cpu0_L1I
Address = 1145376 I am cpu0_L1I
Address = 1145409 I am cpu0_L1I
Address = 1130132 I am cpu0_L1D
Address = 1158792 I am cpu0_L1I
Address = 1213488 I am cpu0_L1I
Address = 1213505 I am cpu0_L1I
Address = 1214128 I am cpu0_L1I
Address = 1214144 I am cpu0_L1I
Address = 1158592 I am cpu0_L1I
Address = 1177632 I am cpu0_L1I
Address = 1509560 I am cpu0_L1D
Address = 1177668 I am cpu0_L1I
Address = 1177729 I am cpu0_L1I
Address = 1177797 I am cpu0_L1I
Address = 1160376 I am cpu0_L1D
Address = 1178032 I am cpu0_L1I
Address = 1177912 I am cpu0_L1I
Address = 1479944 I am cpu0_L1D
Address = 1143472 I am cpu0_L1I
Address = 1143494 I am cpu0_L1I
Address = 1144881 I am cpu0_L1I
Address = 1144897 I am cpu0_L1I
Address = 1159280 I am cpu0_L1D
Address = 1145319 I am cpu0_L1I
Address = 1110776 I am cpu0_L1D
Address = 1598624 I am cpu0_L1I
Address = 1598659 I am cpu0_L1I
Address = 1598773 I am cpu0_L1I
Address = 1598880 I am cpu0_L1I
Address = 1598914 I am cpu0_L1I
Address = 1197616 I am cpu0_L1D
Address = 1216080 I am cpu0_L1I
Address = 1198128 I am cpu0_L1D
Address = 1216130 I am cpu0_L1I
Address = 1236616 I am cpu0_L1D
Address = 1144960 I am cpu0_L1I
Address = 1158688 I am cpu0_L1I
Address = 1158720 I am cpu0_L1I
Address = 67784200 I am cpu0_DTLB
Address = 67784200 I am cpu0_STLB
Address = 1062176 I am cpu0_L1D
Address = 1643808 I am cpu0_L1D
Address = 1143648 I am cpu0_L1I
Address = 1159392 I am cpu0_L1D
Address = 1129384 I am cpu0_L1D
Address = 1267164 I am cpu0_L1D
Address = 1101880 I am cpu0_L1D
Address = 1662472 I am cpu0_L1D
Address = 1177924 I am cpu0_L1I
Address = 57814672 I am cpu0_DTLB
Address = 105194504 I am cpu0_DTLB
Address = 1178120 I am cpu0_L1I
Address = 57814672 I am cpu0_STLB
Address = 1330832 I am cpu0_L1D
Address = 105194504 I am cpu0_STLB
Address = 1061520 I am cpu0_L1D
Address = 1178176 I am cpu0_L1I
Address = 1666704 I am cpu0_L1D
Address = 1655440 I am cpu0_L1D
Address = 1159512 I am cpu0_L1D
Address = 51371680 I am cpu0_DTLB
Address = 51371680 I am cpu0_STLB
Address = 53887824 I am cpu0_DTLB
Address = 1672200 I am cpu0_L1D
Address = 53887824 I am cpu0_STLB
Address = 1244832 I am cpu0_L1D
Address = 1158208 I am cpu0_L1I
Address = 1090384 I am cpu0_L1D
Address = 1267224 I am cpu0_L1D
Address = 1679008 I am cpu0_L1D
Address = 1680208 I am cpu0_L1D
Address = 1158304 I am cpu0_L1I
Address = 1158337 I am cpu0_L1I
Address = 1110704 I am cpu0_L1D
Address = 1236712 I am cpu0_L1D
Address = 1278608 I am cpu0_L1D
Address = 1214208 I am cpu0_L1I
Address = 1214488 I am cpu0_L1I
Address = 1214888 I am cpu0_L1I
Address = 36467184 I am cpu0_DTLB
Address = 4963456 I am cpu0_ITLB
Address = 1215096 I am cpu0_L1I
Address = 36467184 I am cpu0_STLB
Address = 5280096 I am cpu0_ITLB
Address = 1208816 I am cpu0_L1D
Address = 4963456 I am cpu0_STLB
Address = 53765360 I am cpu0_DTLB
Address = 1072256 I am cpu0_L1D
Address = 53765360 I am cpu0_STLB
Address = 1090800 I am cpu0_L1D
Address = 5280096 I am cpu0_STLB
Address = 1069408 I am cpu0_L1D
Address = 1236472 I am cpu0_L1D
Address = 1618016 I am cpu0_L1I
Address = 1683952 I am cpu0_L1D
Address = 1690752 I am cpu0_L1I
Address = 1618050 I am cpu0_L1I
Address = 1692912 I am cpu0_L1D
Address = 1696096 I am cpu0_L1I
Address = 1696147 I am cpu0_L1I
Address = 1696197 I am cpu0_L1I
Address = 1618832 I am cpu0_L1I
Address = 1618880 I am cpu0_L1I
Address = 1696259 I am cpu0_L1I
Address = 1215105 I am cpu0_L1I
Address = 1214931 I am cpu0_L1I
Address = 1215392 I am cpu0_L1I
Address = 1160528 I am cpu0_L1D
Address = 1642280 I am cpu0_L1D
Address = 4590256 I am cpu0_ITLB
Address = 4590256 I am cpu0_STLB
Address = 1702631 I am cpu0_L1I
Address = 1702576 I am cpu0_L1I
Address = 1702656 I am cpu0_L1I
Address = 1702723 I am cpu0_L1I
Address = 4556688 I am cpu0_ITLB
Address = 4556688 I am cpu0_STLB
Address = 1070992 I am cpu0_L1D
Address = 1648568 I am cpu0_L1D
Address = 1705872 I am cpu0_L1I
Address = 1705974 I am cpu0_L1I
Address = 1301984 I am cpu0_L1I
Address = 1302020 I am cpu0_L1I
Address = 1160424 I am cpu0_L1D
Address = 1302080 I am cpu0_L1I
Address = 1302488 I am cpu0_L1I
Address = 4583704 I am cpu0_ITLB
Address = 4583704 I am cpu0_STLB
Address = 1708190 I am cpu0_L1I
Address = 1708312 I am cpu0_L1I
Address = 1708156 I am cpu0_L1I
Address = 1704208 I am cpu0_L1I
Address = 53763984 I am cpu0_DTLB
Address = 1704258 I am cpu0_L1I
Address = 53763984 I am cpu0_STLB
Address = 1093520 I am cpu0_L1D
Address = 1185216 I am cpu0_L1I
Address = 53651992 I am cpu0_DTLB
Address = 1716112 I am cpu0_L1D
Address = 53651992 I am cpu0_STLB
Address = 1092120 I am cpu0_L1D
Address = 1185280 I am cpu0_L1I
Address = 1185346 I am cpu0_L1I
Address = 1185688 I am cpu0_L1I
Address = 1718808 I am cpu0_L1D
Address = 1185552 I am cpu0_L1I
Address = 55128160 I am cpu0_DTLB
Address = 55128160 I am cpu0_STLB
Address = 4285328 I am cpu0_ITLB
Address = 1716160 I am cpu0_L1D
Address = 1335392 I am cpu0_L1D
Address = 4285328 I am cpu0_STLB
Address = 1069968 I am cpu0_L1D
Address = 4282448 I am cpu0_ITLB
Address = 4282448 I am cpu0_STLB
Address = 1071184 I am cpu0_L1D
Address = 1720416 I am cpu0_L1D
Address = 1725328 I am cpu0_L1I
Address = 1666680 I am cpu0_L1D
Address = 1730640 I am cpu0_L1I
Address = 1730693 I am cpu0_L1I
Address = 1730754 I am cpu0_L1I
Address = 1730818 I am cpu0_L1I
Address = 1716048 I am cpu0_L1D
Address = 1731480 I am cpu0_L1I
Address = 1731568 I am cpu0_L1I
Address = 1730964 I am cpu0_L1I
Address = 1691648 I am cpu0_L1D
Address = 1731033 I am cpu0_L1I
Address = 1678620 I am cpu0_L1D
Address = 47399688 I am cpu0_DTLB
Address = 47399688 I am cpu0_STLB
Address = 1731085 I am cpu0_L1I
Address = 1733384 I am cpu0_L1D
Address = 1731172 I am cpu0_L1I
Address = 1731200 I am cpu0_L1I
Address = 1185600 I am cpu0_L1I
Address = 1733368 I am cpu0_L1D
Address = 185526056 I am cpu0_DTLB
Address = 185526056 I am cpu0_STLB
Address = 1247016 I am cpu0_L1D
Address = 1185515 I am cpu0_L1I
Address = 189606736 I am cpu0_DTLB
Address = 1185408 I am cpu0_L1I
Address = 189606736 I am cpu0_STLB
Address = 188391376 I am cpu0_DTLB
Address = 1738536 I am cpu0_L1D
Address = 188391376 I am cpu0_STLB
Address = 1743696 I am cpu0_L1D
Address = 1490896 I am cpu0_L1D
Address = 40296656 I am cpu0_DTLB
Address = 40296656 I am cpu0_STLB
Address = 1413328 I am cpu0_L1D
Address = 185628864 I am cpu0_DTLB
Address = 40345520 I am cpu0_DTLB
Address = 1748944 I am cpu0_L1D
Address = 185628864 I am cpu0_STLB
Address = 1247424 I am cpu0_L1D
Address = 40345520 I am cpu0_STLB
Address = 1417136 I am cpu0_L1D
Address = 1749200 I am cpu0_L1D
Address = 187897536 I am cpu0_DTLB
Address = 187897536 I am cpu0_STLB
Address = 1488576 I am cpu0_L1D
Address = 1755328 I am cpu0_L1D
Address = 1755320 I am cpu0_L1D
Address = 41797312 I am cpu0_DTLB
Address = 1761200 I am cpu0_L1D
Address = 41797312 I am cpu0_STLB
Address = 1414848 I am cpu0_L1D
Address = 1763000 I am cpu0_L1D
Address = 138983944 I am cpu0_DTLB
Address = 1763008 I am cpu0_L1D
Address = 138983944 I am cpu0_STLB
Address = 38286160 I am cpu0_DTLB
Address = 38286160 I am cpu0_STLB
Address = 1668184 I am cpu0_L1D
Address = 1767104 I am cpu0_L1D
Address = 1770520 I am cpu0_L1D
Address = 1780232 I am cpu0_L1D
Address = 1672348 I am cpu0_L1D
Address = 1782608 I am cpu0_L1D
Address = 1691776 I am cpu0_L1D
Address = 75770608 I am cpu0_DTLB
Address = 75770608 I am cpu0_STLB
Address = 59654812 I am cpu0_DTLB
Address = 1061392 I am cpu0_L1D
Address = 59654812 I am cpu0_STLB
Address = 1691760 I am cpu0_L1D
Address = 1062688 I am cpu0_L1D
Address = 1774096 I am cpu0_L1D
Address = 1787680 I am cpu0_L1D
Address = 1691840 I am cpu0_L1D
Address = 1796848 I am cpu0_L1D
Address = 1798812 I am cpu0_L1D
Address = 1678572 I am cpu0_L1D
Address = 46960152 I am cpu0_DTLB
Address = 46960152 I am cpu0_STLB
Address = 46900080 I am cpu0_DTLB
Address = 1805848 I am cpu0_L1D
Address = 46900080 I am cpu0_STLB
Address = 63456448 I am cpu0_DTLB
Address = 63456448 I am cpu0_STLB
Address = 37224544 I am cpu0_DTLB
Address = 37224544 I am cpu0_STLB
Address = 1807216 I am cpu0_L1D
Address = 1791008 I am cpu0_L1D
Address = 1208416 I am cpu0_L1D
Address = 37216928 I am cpu0_DTLB
Address = 37216928 I am cpu0_STLB
Address = 37208768 I am cpu0_DTLB
Address = 1815744 I am cpu0_L1D
Address = 37208768 I am cpu0_STLB
Address = 1815736 I am cpu0_L1D
Address = 1815432 I am cpu0_L1D
Address = 1814592 I am cpu0_L1D
Address = 1818720 I am cpu0_L1D
Address = 1208992 I am cpu0_L1D
Address = 1209024 I am cpu0_L1D
Address = 1823392 I am cpu0_L1D
Address = 1827520 I am cpu0_L1D
Address = 1798636 I am cpu0_L1D
Address = 1692000 I am cpu0_L1D
Address = 36663480 I am cpu0_DTLB
Address = 36663480 I am cpu0_STLB
Address = 1208504 I am cpu0_L1D
Address = 1691936 I am cpu0_L1D
Address = 1831096 I am cpu0_L1D
Address = 1692064 I am cpu0_L1D
Address = 1724797 I am cpu0_L1I
Address = 1724805 I am cpu0_L1I
Address = 1733448 I am cpu0_L1D
Address = 1186384 I am cpu0_L1I
Address = 1186433 I am cpu0_L1I
Address = 1806288 I am cpu0_L1D
Address = 58267352 I am cpu0_DTLB
Address = 58267352 I am cpu0_STLB
Address = 52284528 I am cpu0_DTLB
Address = 51442112 I am cpu0_DTLB
Address = 1328856 I am cpu0_L1D
Address = 52284528 I am cpu0_STLB
Address = 1244272 I am cpu0_L1D
Address = 51442112 I am cpu0_STLB
Address = 1241536 I am cpu0_L1D
Address = 1836760 I am cpu0_L1D
Address = 1842288 I am cpu0_L1D
Address = 1704112 I am cpu0_L1I
Address = 1704130 I am cpu0_L1I
Address = 1843648 I am cpu0_L1D
Address = 53450877 I am cpu0_DTLB
Address = 53450877 I am cpu0_STLB
Address = 1091704 I am cpu0_L1D
Address = 1708992 I am cpu0_L1I
Address = 1709184 I am cpu0_L1I
Address = 1692784 I am cpu0_L1D
Address = 1849469 I am cpu0_L1D
Address = 1710232 I am cpu0_L1I
Address = 52082440 I am cpu0_DTLB
Address = 1710272 I am cpu0_L1I
Address = 52082440 I am cpu0_STLB
Address = 1242888 I am cpu0_L1D
Address = 1709392 I am cpu0_L1I
Address = 1692816 I am cpu0_L1D
Address = 1692496 I am cpu0_L1D
Address = 1709442 I am cpu0_L1I
Address = 1130224 I am cpu0_L1D
Address = 1710048 I am cpu0_L1I
Address = 1853192 I am cpu0_L1D
Address = 5289616 I am cpu0_ITLB
Address = 5289616 I am cpu0_STLB
Address = 1692256 I am cpu0_L1D
Address = 1857168 I am cpu0_L1I
Address = 1857296 I am cpu0_L1I
Address = 1857360 I am cpu0_L1I
Address = 1857408 I am cpu0_L1I
Address = 1692304 I am cpu0_L1D
Address = 1692368 I am cpu0_L1D
Address = 1857472 I am cpu0_L1I
Address = 36185596 I am cpu0_DTLB
Address = 1857216 I am cpu0_L1I
Address = 1710081 I am cpu0_L1I
Address = 1709580 I am cpu0_L1I
Address = 51319132 I am cpu0_DTLB
Address = 51319132 I am cpu0_STLB
Address = 1241432 I am cpu0_L1D
Address = 53887912 I am cpu0_DTLB
Address = 1859932 I am cpu0_L1D
Address = 1680296 I am cpu0_L1D
Address = 185789048 I am cpu0_DTLB
Address = 185789048 I am cpu0_STLB
Address = 1247864 I am cpu0_L1D
Address = 1249680 I am cpu0_L1I
Address = 1249731 I am cpu0_L1I
Address = 1866360 I am cpu0_L1D
Address = 1866368 I am cpu0_L1D
Address = 1249984 I am cpu0_L1I
Address = 1250712 I am cpu0_L1I
Address = 4760128 I am cpu0_ITLB
Address = 1250131 I am cpu0_L1I
Address = 4760128 I am cpu0_STLB
Address = 1069632 I am cpu0_L1D
Address = 1866432 I am cpu0_L1D
Address = 4758368 I am cpu0_ITLB
Address = 1866496 I am cpu0_L1D
Address = 4758368 I am cpu0_STLB
Address = 1071968 I am cpu0_L1D
Address = 1868352 I am cpu0_L1I
Address = 1874869 I am cpu0_L1I
Address = 1874784 I am cpu0_L1I
Address = 1250180 I am cpu0_L1I
Address = 1250261 I am cpu0_L1I
Address = 1250897 I am cpu0_L1I
Address = 1250946 I am cpu0_L1I
Address = 1868464 I am cpu0_L1I
Address = 1692128 I am cpu0_L1D
Address = 1868480 I am cpu0_L1I
Address = 1692544 I am cpu0_L1D
Address = 1251009 I am cpu0_L1I
Address = 1251075 I am cpu0_L1I
Address = 51520332 I am cpu0_DTLB
Address = 1266508 I am cpu0_L1D
Address = 1251138 I am cpu0_L1I
Address = 54625720 I am cpu0_DTLB
Address = 1872544 I am cpu0_L1I
Address = 54625720 I am cpu0_STLB
Address = 1336760 I am cpu0_L1D
Address = 1872576 I am cpu0_L1I
Address = 1130428 I am cpu0_L1D
Address = 1877432 I am cpu0_L1D
Address = 1877552 I am cpu0_L1D
Address = 1251212 I am cpu0_L1I
Address = 1251264 I am cpu0_L1I
Address = 36220036 I am cpu0_DTLB
Address = 55128264 I am cpu0_DTLB
Address = 36220036 I am cpu0_STLB
Address = 1211520 I am cpu0_L1D
Address = 1251331 I am cpu0_L1I
Address = 1720520 I am cpu0_L1D
Address = 1883268 I am cpu0_L1D
Address = 1251393 I am cpu0_L1I
Address = 1251457 I am cpu0_L1I
Address = 1251528 I am cpu0_L1I
Address = 1128736 I am cpu0_L1D
Address = 1334592 I am cpu0_L1D
Address = 51988096 I am cpu0_DTLB
Address = 1266736 I am cpu0_L1D
Address = 1334656 I am cpu0_L1D
Address = 1271424 I am cpu0_L1D
Address = 1198360 I am cpu0_L1D
Address = 1266464 I am cpu0_L1D
Address = 1271816 I am cpu0_L1D
Address = 1251584 I am cpu0_L1I
Address = 1334720 I am cpu0_L1D
Address = 54622976 I am cpu0_DTLB
Address = 1271584 I am cpu0_L1D
Address = 54622976 I am cpu0_STLB
Address = 1338112 I am cpu0_L1D
Address = 1271760 I am cpu0_L1D
Address = 1886976 I am cpu0_L1D
Address = 53912240 I am cpu0_DTLB
Address = 102541340 I am cpu0_DTLB
Address = 72329484 I am cpu0_DTLB
Address = 1468444 I am cpu0_L1D
Address = 188846812 I am cpu0_DTLB
Address = 36467184 I am cpu0_DTLB
Address = 189122012 I am cpu0_DTLB
Address = 161284588 I am cpu0_DTLB
Address = 189113724 I am cpu0_DTLB
Address = 1251654 I am cpu0_L1I
Address = 1249929 I am cpu0_L1I
Address = 188926636 I am cpu0_DTLB
Address = 102514652 I am cpu0_DTLB
Address = 83699564 I am cpu0_DTLB
Address = 73003164 I am cpu0_DTLB
Address = 122778364 I am cpu0_DTLB
Address = 189190268 I am cpu0_DTLB
Address = 1710352 I am cpu0_L1I
Address = 189584620 I am cpu0_DTLB
Address = 4452784 I am cpu0_ITLB
Address = 119334476 I am cpu0_DTLB
Address = 4196464 I am cpu0_ITLB
Address = 4452784 I am cpu0_STLB
Address = 1069488 I am cpu0_L1D
Address = 4196464 I am cpu0_STLB
Address = 97839100 I am cpu0_DTLB
Address = 188075788 I am cpu0_DTLB
Address = 1890416 I am cpu0_L1I
Address = 1890432 I am cpu0_L1I
Address = 1890503 I am cpu0_L1I
Address = 1892784 I am cpu0_L1I
Address = 1892803 I am cpu0_L1I
Address = 185605312 I am cpu0_DTLB
Address = 185605312 I am cpu0_STLB
Address = 1248448 I am cpu0_L1D
Address = 1892867 I am cpu0_L1I
Address = 1899776 I am cpu0_L1D
Address = 1899712 I am cpu0_L1D
Address = 1899840 I am cpu0_L1D
Address = 1198816 I am cpu0_L1D
Address = 1872208 I am cpu0_L1I
Address = 1872257 I am cpu0_L1I
Address = 1702788 I am cpu0_L1I
Address = 8202872 I am cpu0_DTLB
Address = 4591664 I am cpu0_ITLB
Address = 1198560 I am cpu0_L1D
Address = 4591664 I am cpu0_STLB
Address = 1198624 I am cpu0_L1D
Address = 1900592 I am cpu0_L1I
Address = 1900612 I am cpu0_L1I
Address = 1198688 I am cpu0_L1D
Address = 1900677 I am cpu0_L1I
Address = 1593968 I am cpu0_L1I
Address = 1198416 I am cpu0_L1D
Address = 1593984 I am cpu0_L1I
Address = 1592465 I am cpu0_L1I
Address = 1592513 I am cpu0_L1I
Address = 1592593 I am cpu0_L1I
Address = 1592670 I am cpu0_L1I
Address = 1198752 I am cpu0_L1D
Address = 1900738 I am cpu0_L1I
Address = 5701136 I am cpu0_DTLB
Address = 57814648 I am cpu0_DTLB
Address = 105194504 I am cpu0_DTLB
Address = 1877168 I am cpu0_L1D
Address = 4527904 I am cpu0_ITLB
Address = 4527904 I am cpu0_STLB
Address = 1198320 I am cpu0_L1D
Address = 1070880 I am cpu0_L1D
Address = 1906464 I am cpu0_L1I
Address = 1906498 I am cpu0_L1I
Address = 1198992 I am cpu0_L1D
Address = 1906565 I am cpu0_L1I
Address = 1199056 I am cpu0_L1D
Address = 36185596 I am cpu0_DTLB
Address = 1907248 I am cpu0_L1I
Address = 1907266 I am cpu0_L1I
Address = 1875952 I am cpu0_L1I
Address = 1867779 I am cpu0_L1I
Address = 1867843 I am cpu0_L1I
Address = 1876608 I am cpu0_L1D
Address = 4776624 I am cpu0_ITLB
Address = 4776624 I am cpu0_STLB
Address = 1069744 I am cpu0_L1D
Address = 1876592 I am cpu0_L1D
Address = 1876848 I am cpu0_L1D
Address = 1906635 I am cpu0_L1I
Address = 1909424 I am cpu0_L1I
Address = 1909445 I am cpu0_L1I
Address = 1909504 I am cpu0_L1I
Address = 1876868 I am cpu0_L1D
Address = 1906691 I am cpu0_L1I
Address = 1906752 I am cpu0_L1I
Address = 1906818 I am cpu0_L1I
Address = 53912296 I am cpu0_DTLB
Address = 1906890 I am cpu0_L1I
Address = 1906948 I am cpu0_L1I
Address = 1907440 I am cpu0_L1I
Address = 184054784 I am cpu0_DTLB
Address = 1183876 I am cpu0_L1I
Address = 1202241 I am cpu0_L1I
Address = 1877192 I am cpu0_L1D
Address = 36220036 I am cpu0_DTLB
Address = 1184385 I am cpu0_L1I
Address = 1876944 I am cpu0_L1D
Address = 1173584 I am cpu0_L1I
Address = 1876736 I am cpu0_L1D
Address = 36201728 I am cpu0_DTLB
Address = 1876432 I am cpu0_L1D
Address = 1886736 I am cpu0_L1D
Address = 1886800 I am cpu0_L1D
Address = 1174083 I am cpu0_L1I
Address = 47436080 I am cpu0_DTLB
Address = 1321539 I am cpu0_L1I
Address = 1519920 I am cpu0_L1D
Address = 1887132 I am cpu0_L1D
Address = 1167491 I am cpu0_L1I
Address = 1321865 I am cpu0_L1I
Address = 1321920 I am cpu0_L1I
Address = 1321985 I am cpu0_L1I
Address = 1167750 I am cpu0_L1I
Address = 1322049 I am cpu0_L1I
Address = 1322638 I am cpu0_L1I
Address = 1322691 I am cpu0_L1I
Address = 1688928 I am cpu0_L1I
Address = 54888600 I am cpu0_DTLB
Address = 1887064 I am cpu0_L1D
Address = 1688964 I am cpu0_L1I
Address = 54888600 I am cpu0_STLB
Address = 1337496 I am cpu0_L1D
Address = 1689025 I am cpu0_L1I
Address = 1689248 I am cpu0_L1I
Address = 1689312 I am cpu0_L1I
Address = 1689440 I am cpu0_L1I
Address = 1689472 I am cpu0_L1I
Address = 1915024 I am cpu0_L1D
Address = 1689712 I am cpu0_L1I
Address = 1689730 I am cpu0_L1I
Address = 58187432 I am cpu0_DTLB
Address = 1689200 I am cpu0_L1I
Address = 1322314 I am cpu0_L1I
Address = 120755710 I am cpu0_DTLB
Address = 1152510 I am cpu0_L1D
Address = 1887693 I am cpu0_L1D
Address = 1887588 I am cpu0_L1D
Address = 1887638 I am cpu0_L1D
Address = 1179808 I am cpu0_L1I
Address = 1343192 I am cpu0_L1D
Address = 1876304 I am cpu0_L1D
Address = 1876992 I am cpu0_L1D
Address = 72329484 I am cpu0_DTLB
Address = 47143920 I am cpu0_DTLB
Address = 47143920 I am cpu0_STLB
Address = 1919984 I am cpu0_L1D
Address = 38736560 I am cpu0_DTLB
Address = 1323688 I am cpu0_L1D
Address = 47651448 I am cpu0_DTLB
Address = 177825806 I am cpu0_DTLB
Address = 55053896 I am cpu0_DTLB
Address = 189113724 I am cpu0_DTLB
Address = 48111040 I am cpu0_DTLB
Address = 47653688 I am cpu0_DTLB
Address = 189016910 I am cpu0_DTLB
Address = 40905968 I am cpu0_DTLB
Address = 48612144 I am cpu0_DTLB
Address = 83699564 I am cpu0_DTLB
Address = 47140392 I am cpu0_DTLB
Address = 189041422 I am cpu0_DTLB
Address = 47758280 I am cpu0_DTLB
Address = 189063726 I am cpu0_DTLB
Address = 102541276 I am cpu0_DTLB
Address = 48570064 I am cpu0_DTLB
Address = 1462917 I am cpu0_L1D
Address = 48301488 I am cpu0_DTLB
Address = 85188222 I am cpu0_DTLB
Address = 189190268 I am cpu0_DTLB
Address = 47469720 I am cpu0_DTLB
Address = 188079260 I am cpu0_DTLB
Address = 47804624 I am cpu0_DTLB
Address = 189584620 I am cpu0_DTLB
Address = 47436640 I am cpu0_DTLB
Address = 1520480 I am cpu0_L1D
Address = 188034222 I am cpu0_DTLB
Address = 48524760 I am cpu0_DTLB
Address = 1527109 I am cpu0_L1D
Address = 52139752 I am cpu0_DTLB
Address = 189735982 I am cpu0_DTLB
Address = 189177324 I am cpu0_DTLB
Address = 53700984 I am cpu0_DTLB
Address = 95462862 I am cpu0_DTLB
Address = 47764096 I am cpu0_DTLB
Address = 1577600 I am cpu0_L1D
Address = 1557637 I am cpu0_L1D
Address = 1585280 I am cpu0_L1I
Address = 1876720 I am cpu0_L1D
Address = 1877104 I am cpu0_L1D
Address = 1609888 I am cpu0_L1I
Address = 1620547 I am cpu0_L1I
Address = 186004936 I am cpu0_DTLB
Address = 36177984 I am cpu0_DTLB
Address = 8227260 I am cpu0_DTLB
Address = 8208192 I am cpu0_DTLB
Address = 1593475 I am cpu0_L1I
Address = 8210480 I am cpu0_DTLB
Address = 116570040 I am cpu0_DTLB
Address = 1581696 I am cpu0_L1I
Address = 1598082 I am cpu0_L1I
Address = 1145409 I am cpu0_L1I
Address = 53912352 I am cpu0_DTLB
Address = 1177668 I am cpu0_L1I
Address = 1177729 I am cpu0_L1I
Address = 1143472 I am cpu0_L1I
Address = 1144897 I am cpu0_L1I
Address = 1877600 I am cpu0_L1D
Address = 1144960 I am cpu0_L1I
Address = 67784200 I am cpu0_DTLB
Address = 57814680 I am cpu0_DTLB
Address = 105194504 I am cpu0_DTLB
Address = 51371680 I am cpu0_DTLB
Address = 1178176 I am cpu0_L1I
Address = 53887824 I am cpu0_DTLB
Address = 53766912 I am cpu0_DTLB
Address = 1694464 I am cpu0_L1D
Address = 1215096 I am cpu0_L1I
Address = 1618050 I am cpu0_L1I
Address = 1694448 I am cpu0_L1D
Address = 1708161 I am cpu0_L1I
Address = 1693088 I am cpu0_L1D
Address = 53651992 I am cpu0_DTLB
Address = 1693136 I am cpu0_L1D
Address = 1730640 I am cpu0_L1I
Address = 1730693 I am cpu0_L1I
Address = 1693024 I am cpu0_L1D
Address = 1693200 I am cpu0_L1D
Address = 47399784 I am cpu0_DTLB
Address = 1678492 I am cpu0_L1D
Address = 1731172 I am cpu0_L1I
Address = 185526056 I am cpu0_DTLB
Address = 189606736 I am cpu0_DTLB
Address = 188391376 I am cpu0_DTLB
Address = 40296656 I am cpu0_DTLB
Address = 185628864 I am cpu0_DTLB
Address = 40345520 I am cpu0_DTLB
Address = 187897536 I am cpu0_DTLB
Address = 41797312 I am cpu0_DTLB
Address = 138983944 I am cpu0_DTLB
Address = 38286160 I am cpu0_DTLB
Address = 1693328 I am cpu0_L1D
Address = 75770608 I am cpu0_DTLB
Address = 59654812 I am cpu0_DTLB
Address = 1693264 I am cpu0_L1D
Address = 1693392 I am cpu0_L1D
Address = 1678444 I am cpu0_L1D
Address = 1733512 I am cpu0_L1D
Address = 46960152 I am cpu0_DTLB
Address = 46900080 I am cpu0_DTLB
Address = 63456448 I am cpu0_DTLB
Address = 37224544 I am cpu0_DTLB
Address = 37216928 I am cpu0_DTLB
Address = 37208768 I am cpu0_DTLB
Address = 1693552 I am cpu0_L1D
Address = 1693572 I am cpu0_L1D
Address = 36663480 I am cpu0_DTLB
Address = 1693488 I am cpu0_L1D
Address = 1693636 I am cpu0_L1D
Address = 1186384 I am cpu0_L1I
Address = 58272992 I am cpu0_DTLB
Address = 52286448 I am cpu0_DTLB
Address = 58272992 I am cpu0_STLB
Address = 49095664 I am cpu0_DTLB
Address = 1330400 I am cpu0_L1D
Address = 52286448 I am cpu0_STLB
Address = 1242096 I am cpu0_L1D
Address = 49095664 I am cpu0_STLB
Address = 1422320 I am cpu0_L1D
Address = 1924320 I am cpu0_L1D
Address = 1926128 I am cpu0_L1D
Address = 1930224 I am cpu0_L1D
Address = 1930244 I am cpu0_L1D
Address = 1704112 I am cpu0_L1I
Address = 53449725 I am cpu0_DTLB
Address = 1848317 I am cpu0_L1D
Address = 1694336 I am cpu0_L1D
Address = 1710232 I am cpu0_L1I
Address = 52082696 I am cpu0_DTLB
Address = 1853448 I am cpu0_L1D
Address = 1694048 I am cpu0_L1D
Address = 1693808 I am cpu0_L1D
Address = 53651992 I am cpu0_DTLB
Address = 1693828 I am cpu0_L1D
Address = 1693920 I am cpu0_L1D
Address = 36185596 I am cpu0_DTLB
Address = 51319132 I am cpu0_DTLB
Address = 53887912 I am cpu0_DTLB
Address = 185789048 I am cpu0_DTLB
Address = 1868464 I am cpu0_L1I
Address = 1693704 I am cpu0_L1D
Address = 1694096 I am cpu0_L1D
Address = 51520076 I am cpu0_DTLB
Address = 54633400 I am cpu0_DTLB
Address = 1266252 I am cpu0_L1D
Address = 54633400 I am cpu0_STLB
Address = 1336248 I am cpu0_L1D
Address = 1872544 I am cpu0_L1I
Address = 1934264 I am cpu0_L1D
Address = 1934384 I am cpu0_L1D
Address = 36220036 I am cpu0_DTLB
Address = 55128408 I am cpu0_DTLB
Address = 1720672 I am cpu0_L1D
Address = 1251393 I am cpu0_L1I
Address = 1251457 I am cpu0_L1I
Address = 1720712 I am cpu0_L1D
Address = 1266400 I am cpu0_L1D
Address = 1877768 I am cpu0_L1D
Address = 1266208 I am cpu0_L1D
Address = 1272136 I am cpu0_L1D
Address = 1271984 I am cpu0_L1D
Address = 1879264 I am cpu0_L1D
Address = 1272080 I am cpu0_L1D
Address = 53912240 I am cpu0_DTLB
Address = 102541340 I am cpu0_DTLB
Address = 72329484 I am cpu0_DTLB
Address = 188846812 I am cpu0_DTLB
Address = 189122012 I am cpu0_DTLB
Address = 161284588 I am cpu0_DTLB
Address = 189113724 I am cpu0_DTLB
Address = 1249929 I am cpu0_L1I
Address = 188926636 I am cpu0_DTLB
Address = 102514652 I am cpu0_DTLB
Address = 83699564 I am cpu0_DTLB
Address = 73003164 I am cpu0_DTLB
Address = 189190268 I am cpu0_DTLB
Address = 189584620 I am cpu0_DTLB
Address = 119334476 I am cpu0_DTLB
Address = 97839100 I am cpu0_DTLB
Address = 188075788 I am cpu0_DTLB
Address = 1890416 I am cpu0_L1I
Address = 1890432 I am cpu0_L1I
Address = 186333616 I am cpu0_DTLB
Address = 186333616 I am cpu0_STLB
Address = 1247664 I am cpu0_L1D
Address = 1939888 I am cpu0_L1D
Address = 1939904 I am cpu0_L1D
Address = 1939968 I am cpu0_L1D
Address = 1878208 I am cpu0_L1D
Address = 8202872 I am cpu0_DTLB
Address = 1940032 I am cpu0_L1D
Address = 1877968 I am cpu0_L1D
Address = 1878032 I am cpu0_L1D
Address = 1900677 I am cpu0_L1I
Address = 1878096 I am cpu0_L1D
Address = 1877824 I am cpu0_L1D
Address = 1593984 I am cpu0_L1I
Address = 1878160 I am cpu0_L1D
Address = 57814648 I am cpu0_DTLB
Address = 105194504 I am cpu0_DTLB
Address = 54629104 I am cpu0_DTLB
Address = 54629104 I am cpu0_STLB
Address = 1336048 I am cpu0_L1D
Address = 1942256 I am cpu0_L1D
Address = 1877728 I am cpu0_L1D
Address = 1878400 I am cpu0_L1D
Address = 1878384 I am cpu0_L1D
Address = 1878464 I am cpu0_L1D
Address = 36185596 I am cpu0_DTLB
Address = 1907266 I am cpu0_L1I
Address = 1941696 I am cpu0_L1D
Address = 1909424 I am cpu0_L1I
Address = 1941680 I am cpu0_L1D
Address = 1941936 I am cpu0_L1D
Address = 1941956 I am cpu0_L1D
Address = 1906752 I am cpu0_L1I
Address = 1906818 I am cpu0_L1I
Address = 53912296 I am cpu0_DTLB
Address = 1183876 I am cpu0_L1I
Address = 1942280 I am cpu0_L1D
Address = 36220036 I am cpu0_DTLB
Address = 1184385 I am cpu0_L1I
Address = 1942032 I am cpu0_L1D
Address = 102541340 I am cpu0_DTLB
Address = 1941824 I am cpu0_L1D
Address = 36201728 I am cpu0_DTLB
Address = 1941520 I am cpu0_L1D
Address = 1879024 I am cpu0_L1D
Address = 1879044 I am cpu0_L1D
Address = 1174083 I am cpu0_L1I
Address = 47436072 I am cpu0_DTLB
Address = 1879104 I am cpu0_L1D
Address = 1879420 I am cpu0_L1D
Address = 1171432 I am cpu0_L1I
Address = 1155073 I am cpu0_L1I
Address = 1157088 I am cpu0_L1I
Address = 1156312 I am cpu0_L1I
Address = 1155278 I am cpu0_L1I
Address = 1155360 I am cpu0_L1I
Address = 1165280 I am cpu0_L1I
Address = 1165314 I am cpu0_L1I
Address = 1165400 I am cpu0_L1I
Address = 4736960 I am cpu0_ITLB
Address = 4736960 I am cpu0_STLB
Address = 1071040 I am cpu0_L1D
Address = 1947197 I am cpu0_L1I
Address = 1947201 I am cpu0_L1I
Address = 1947584 I am cpu0_L1I
Address = 1949000 I am cpu0_L1I
Address = 1879424 I am cpu0_L1D
Address = 1879352 I am cpu0_L1D
Address = 1879544 I am cpu0_L1D
Address = 1879552 I am cpu0_L1D
Address = 5696002 I am cpu0_DTLB
Address = 1129944 I am cpu0_L1D
Address = 1101624 I am cpu0_L1D
Address = 5622082 I am cpu0_DTLB
Address = 5622082 I am cpu0_STLB
Address = 1071424 I am cpu0_L1D
Address = 120755696 I am cpu0_DTLB
Address = 1952066 I am cpu0_L1D
Address = 1118960 I am cpu0_L1D
Address = 1947536 I am cpu0_L1I
Address = 1173520 I am cpu0_L1I
Address = 1137212 I am cpu0_L1D
Address = 1179808 I am cpu0_L1I
Address = 1879952 I am cpu0_L1D
Address = 1942080 I am cpu0_L1D
Address = 72329484 I am cpu0_DTLB
Address = 47143920 I am cpu0_DTLB
Address = 38736560 I am cpu0_DTLB
Address = 47651448 I am cpu0_DTLB
Address = 177825792 I am cpu0_DTLB
Address = 55053896 I am cpu0_DTLB
Address = 189113724 I am cpu0_DTLB
Address = 48111040 I am cpu0_DTLB
Address = 47653688 I am cpu0_DTLB
Address = 189016896 I am cpu0_DTLB
Address = 40905968 I am cpu0_DTLB
Address = 48612144 I am cpu0_DTLB
Address = 83699564 I am cpu0_DTLB
Address = 47140392 I am cpu0_DTLB
Address = 189041408 I am cpu0_DTLB
Address = 47758280 I am cpu0_DTLB
Address = 189063712 I am cpu0_DTLB
Address = 102541276 I am cpu0_DTLB
Address = 48570064 I am cpu0_DTLB
Address = 48301488 I am cpu0_DTLB
Address = 85188208 I am cpu0_DTLB
Address = 189190268 I am cpu0_DTLB
Address = 47469720 I am cpu0_DTLB
Address = 47804624 I am cpu0_DTLB
Address = 189584620 I am cpu0_DTLB
Address = 47436640 I am cpu0_DTLB
Address = 188034208 I am cpu0_DTLB
Address = 48524760 I am cpu0_DTLB
Address = 52139752 I am cpu0_DTLB
Address = 189735968 I am cpu0_DTLB
Address = 189177324 I am cpu0_DTLB
Address = 53700984 I am cpu0_DTLB
Address = 95462848 I am cpu0_DTLB
Address = 47764096 I am cpu0_DTLB
Address = 1585280 I am cpu0_L1I
Address = 1941808 I am cpu0_L1D
Address = 1942192 I am cpu0_L1D
Address = 1599432 I am cpu0_L1I
Address = 184054784 I am cpu0_DTLB
Address = 1609888 I am cpu0_L1I
Address = 186004936 I am cpu0_DTLB
Address = 36177984 I am cpu0_DTLB
Address = 8227260 I am cpu0_DTLB
Address = 8208192 I am cpu0_DTLB
Address = 1593475 I am cpu0_L1I
Address = 8210480 I am cpu0_DTLB
Address = 116570040 I am cpu0_DTLB
Address = 1581696 I am cpu0_L1I
Address = 1598082 I am cpu0_L1I
Address = 53912352 I am cpu0_DTLB
Address = 1177632 I am cpu0_L1I
Address = 1177668 I am cpu0_L1I
Address = 1143472 I am cpu0_L1I
Address = 1144881 I am cpu0_L1I
Address = 1144897 I am cpu0_L1I
Address = 54633632 I am cpu0_DTLB
Address = 1934496 I am cpu0_L1D
Address = 67784200 I am cpu0_DTLB
Address = 57814688 I am cpu0_DTLB
Address = 105194504 I am cpu0_DTLB
Address = 51371680 I am cpu0_DTLB
Address = 53887824 I am cpu0_DTLB
Address = 53768736 I am cpu0_DTLB
Address = 53768736 I am cpu0_STLB
Address = 1090080 I am cpu0_L1D
Address = 1954336 I am cpu0_L1D
Address = 1214488 I am cpu0_L1I
Address = 1618050 I am cpu0_L1I
Address = 1705974 I am cpu0_L1I
Address = 1708161 I am cpu0_L1I
Address = 53767088 I am cpu0_DTLB
Address = 1694648 I am cpu0_L1D
Address = 53651992 I am cpu0_DTLB
Address = 1694660 I am cpu0_L1D
Address = 55128448 I am cpu0_DTLB
Address = 1730640 I am cpu0_L1I
Address = 1694576 I am cpu0_L1D
Address = 1694752 I am cpu0_L1D
Address = 47399880 I am cpu0_DTLB
Address = 1678364 I am cpu0_L1D
Address = 1733576 I am cpu0_L1D
Address = 185526056 I am cpu0_DTLB
Address = 189606736 I am cpu0_DTLB
Address = 188391376 I am cpu0_DTLB
Address = 40296656 I am cpu0_DTLB
Address = 185628864 I am cpu0_DTLB
Address = 40345520 I am cpu0_DTLB
Address = 187897536 I am cpu0_DTLB
Address = 41797312 I am cpu0_DTLB
Address = 138983944 I am cpu0_DTLB
Address = 38286160 I am cpu0_DTLB
Address = 1694880 I am cpu0_L1D
Address = 75770608 I am cpu0_DTLB
Address = 59654812 I am cpu0_DTLB
Address = 1694816 I am cpu0_L1D
Address = 1694944 I am cpu0_L1D
Address = 1678316 I am cpu0_L1D
Address = 46960152 I am cpu0_DTLB
Address = 46900080 I am cpu0_DTLB
Address = 63456448 I am cpu0_DTLB
Address = 37224544 I am cpu0_DTLB
Address = 37216928 I am cpu0_DTLB
Address = 37208768 I am cpu0_DTLB
Address = 1695104 I am cpu0_L1D
Address = 36663480 I am cpu0_DTLB
Address = 1695088 I am cpu0_L1D
Address = 1695024 I am cpu0_L1D
Address = 53762608 I am cpu0_DTLB
Address = 1714736 I am cpu0_L1D
Address = 1714756 I am cpu0_L1D
Address = 1733640 I am cpu0_L1D
Address = 58274536 I am cpu0_DTLB
Address = 48094920 I am cpu0_DTLB
Address = 58274536 I am cpu0_STLB
Address = 46749120 I am cpu0_DTLB
Address = 1327848 I am cpu0_L1D
Address = 48094920 I am cpu0_STLB
Address = 1355464 I am cpu0_L1D
Address = 46749120 I am cpu0_STLB
Address = 1353152 I am cpu0_L1D
Address = 1958632 I am cpu0_L1D
Address = 1965768 I am cpu0_L1D
Address = 1704112 I am cpu0_L1I
Address = 1967552 I am cpu0_L1D
Address = 53447277 I am cpu0_DTLB
Address = 53447277 I am cpu0_STLB
Address = 1092200 I am cpu0_L1D
Address = 1954208 I am cpu0_L1D
Address = 1972845 I am cpu0_L1D
Address = 53203872 I am cpu0_DTLB
Address = 53203872 I am cpu0_STLB
Address = 1954240 I am cpu0_L1D
Address = 1975200 I am cpu0_L1D
Address = 1953920 I am cpu0_L1D
Address = 1953904 I am cpu0_L1D
Address = 1710048 I am cpu0_L1I
Address = 1714928 I am cpu0_L1D
Address = 1714948 I am cpu0_L1D
Address = 1695680 I am cpu0_L1D
Address = 1695664 I am cpu0_L1D
Address = 1953792 I am cpu0_L1D
Address = 1857472 I am cpu0_L1I
Address = 36185596 I am cpu0_DTLB
Address = 51319132 I am cpu0_DTLB
Address = 1710081 I am cpu0_L1I
Address = 53887912 I am cpu0_DTLB
Address = 185789048 I am cpu0_DTLB
Address = 1868464 I am cpu0_L1I
Address = 1714824 I am cpu0_L1D
Address = 1953988 I am cpu0_L1D
Address = 51519772 I am cpu0_DTLB
Address = 54637400 I am cpu0_DTLB
Address = 1265948 I am cpu0_L1D
Address = 54637400 I am cpu0_STLB
Address = 1336152 I am cpu0_L1D
Address = 1872544 I am cpu0_L1I
Address = 1979224 I am cpu0_L1D
Address = 1979344 I am cpu0_L1D
Address = 1251264 I am cpu0_L1I
Address = 36220036 I am cpu0_DTLB
Address = 55128552 I am cpu0_DTLB
Address = 1251331 I am cpu0_L1I
Address = 1720816 I am cpu0_L1D
Address = 1251393 I am cpu0_L1I
Address = 1720856 I am cpu0_L1D
Address = 1266144 I am cpu0_L1D
Address = 54633800 I am cpu0_DTLB
Address = 1265904 I am cpu0_L1D
Address = 1934664 I am cpu0_L1D
Address = 1272536 I am cpu0_L1D
Address = 1272304 I am cpu0_L1D
Address = 1936128 I am cpu0_L1D
Address = 1272480 I am cpu0_L1D
Address = 53912240 I am cpu0_DTLB
Address = 102541340 I am cpu0_DTLB
Address = 72329484 I am cpu0_DTLB
Address = 188846812 I am cpu0_DTLB
Address = 189122012 I am cpu0_DTLB
Address = 161284588 I am cpu0_DTLB
Address = 189113724 I am cpu0_DTLB
Address = 1249929 I am cpu0_L1I
Address = 188926636 I am cpu0_DTLB
Address = 102514652 I am cpu0_DTLB
Address = 83699564 I am cpu0_DTLB
Address = 73003164 I am cpu0_DTLB
Address = 189190268 I am cpu0_DTLB
Address = 189584620 I am cpu0_DTLB
Address = 119334476 I am cpu0_DTLB
Address = 97839100 I am cpu0_DTLB
Address = 188075788 I am cpu0_DTLB
Address = 1890416 I am cpu0_L1I
Address = 186660512 I am cpu0_DTLB
Address = 186660512 I am cpu0_STLB
Address = 1488544 I am cpu0_L1D
Address = 1984160 I am cpu0_L1D
Address = 1984192 I am cpu0_L1D
Address = 1984256 I am cpu0_L1D
Address = 1935104 I am cpu0_L1D
Address = 8202872 I am cpu0_DTLB
Address = 1984320 I am cpu0_L1D
Address = 1934864 I am cpu0_L1D
Address = 1934928 I am cpu0_L1D
Address = 36185596 I am cpu0_DTLB
Address = 1900677 I am cpu0_L1I
Address = 1934992 I am cpu0_L1D
Address = 72329484 I am cpu0_DTLB
Address = 1934720 I am cpu0_L1D
Address = 1593984 I am cpu0_L1I
Address = 1935056 I am cpu0_L1D
Address = 83699564 I am cpu0_DTLB
Address = 5701136 I am cpu0_DTLB
Address = 57814648 I am cpu0_DTLB
Address = 105194504 I am cpu0_DTLB
Address = 1978960 I am cpu0_L1D
Address = 1934624 I am cpu0_L1D
Address = 1935296 I am cpu0_L1D
Address = 1935280 I am cpu0_L1D
Address = 1935360 I am cpu0_L1D
Address = 36185596 I am cpu0_DTLB
Address = 1978400 I am cpu0_L1D
Address = 1909424 I am cpu0_L1I
Address = 1978640 I am cpu0_L1D
Address = 1906635 I am cpu0_L1I
Address = 1906691 I am cpu0_L1I
Address = 1906752 I am cpu0_L1I
Address = 53912296 I am cpu0_DTLB
Address = 1183876 I am cpu0_L1I
Address = 1202241 I am cpu0_L1I
Address = 1978688 I am cpu0_L1D
Address = 36220036 I am cpu0_DTLB
Address = 1184385 I am cpu0_L1I
Address = 1978757 I am cpu0_L1D
Address = 102541340 I am cpu0_DTLB
Address = 1978528 I am cpu0_L1D
Address = 36197720 I am cpu0_DTLB
Address = 36201728 I am cpu0_DTLB
Address = 1978560 I am cpu0_L1D
Address = 54636400 I am cpu0_DTLB
Address = 1937264 I am cpu0_L1D
Address = 1935888 I am cpu0_L1D
Address = 1935952 I am cpu0_L1D
Address = 36185584 I am cpu0_DTLB
Address = 47436080 I am cpu0_DTLB
Address = 1936284 I am cpu0_L1D
Address = 1157312 I am cpu0_L1I
Address = 1078665 I am cpu0_L1I
Address = 1081423 I am cpu0_L1I
Address = 1936224 I am cpu0_L1D
Address = 1083565 I am cpu0_L1I
Address = 1083584 I am cpu0_L1I
Address = 1079161 I am cpu0_L1I
Address = 1079171 I am cpu0_L1I
Address = 1079247 I am cpu0_L1I
Address = 120755696 I am cpu0_DTLB
Address = 1141660 I am cpu0_L1I
Address = 4946016 I am cpu0_ITLB
Address = 4946016 I am cpu0_STLB
Address = 5696672 I am cpu0_DTLB
Address = 1988720 I am cpu0_L1I
Address = 1988746 I am cpu0_L1I
Address = 1936333 I am cpu0_L1D
Address = 1079316 I am cpu0_L1I
Address = 1083248 I am cpu0_L1I
Address = 1083267 I am cpu0_L1I
Address = 1138717 I am cpu0_L1I
Address = 1345952 I am cpu0_L1I
Address = 1345985 I am cpu0_L1I
Address = 1129080 I am cpu0_L1D
Address = 55990128 I am cpu0_DTLB
Address = 55990128 I am cpu0_STLB
Address = 5622042 I am cpu0_DTLB
Address = 1337200 I am cpu0_L1D
Address = 1952026 I am cpu0_L1D
Address = 1992560 I am cpu0_L1D
Address = 1137272 I am cpu0_L1D
Address = 1110864 I am cpu0_L1D
Address = 1936401 I am cpu0_L1D
Address = 1349632 I am cpu0_L1I
Address = 1349697 I am cpu0_L1I
Address = 1350208 I am cpu0_L1I
Address = 1136392 I am cpu0_L1D
Address = 1136376 I am cpu0_L1D
Address = 1343584 I am cpu0_L1I
Address = 1164736 I am cpu0_L1I
Address = 1143200 I am cpu0_L1I
Address = 1173520 I am cpu0_L1I
Address = 1179808 I am cpu0_L1I
Address = 1937136 I am cpu0_L1D
Address = 72329484 I am cpu0_DTLB
Address = 47143920 I am cpu0_DTLB
Address = 1136116 I am cpu0_L1D
Address = 38736560 I am cpu0_DTLB
Address = 47651448 I am cpu0_DTLB
Address = 177825792 I am cpu0_DTLB
Address = 55053896 I am cpu0_DTLB
Address = 189113724 I am cpu0_DTLB
Address = 48111040 I am cpu0_DTLB
Address = 47653688 I am cpu0_DTLB
Address = 189016896 I am cpu0_DTLB
Address = 40905968 I am cpu0_DTLB
Address = 48612144 I am cpu0_DTLB
Address = 83699564 I am cpu0_DTLB
Address = 47140392 I am cpu0_DTLB
Address = 189041408 I am cpu0_DTLB
Address = 47758280 I am cpu0_DTLB
Address = 189114444 I am cpu0_DTLB
Address = 189063712 I am cpu0_DTLB
Address = 102541276 I am cpu0_DTLB
Address = 48570064 I am cpu0_DTLB
Address = 48301488 I am cpu0_DTLB
Address = 85188208 I am cpu0_DTLB
Address = 189190268 I am cpu0_DTLB
Address = 47469720 I am cpu0_DTLB
Address = 188079260 I am cpu0_DTLB
Address = 47804624 I am cpu0_DTLB
Address = 189584620 I am cpu0_DTLB
Address = 47436640 I am cpu0_DTLB
Address = 188034208 I am cpu0_DTLB
Address = 48524760 I am cpu0_DTLB
Address = 52139752 I am cpu0_DTLB
Address = 189735968 I am cpu0_DTLB
Address = 53700984 I am cpu0_DTLB
Address = 95462848 I am cpu0_DTLB
Address = 1136728 I am cpu0_L1D
Address = 1136656 I am cpu0_L1D
Address = 47764096 I am cpu0_DTLB
Address = 1978896 I am cpu0_L1D
Address = 1585264 I am cpu0_L1I
Address = 1585280 I am cpu0_L1I
Address = 1599300 I am cpu0_L1I
Address = 1599376 I am cpu0_L1I
Address = 1593408 I am cpu0_L1I
Address = 186004936 I am cpu0_DTLB
Address = 1609888 I am cpu0_L1I
Address = 1616112 I am cpu0_L1I
Address = 1620547 I am cpu0_L1I
Address = 36177984 I am cpu0_DTLB
Address = 8227260 I am cpu0_DTLB
Address = 8208192 I am cpu0_DTLB
Address = 1593475 I am cpu0_L1I
Address = 8210480 I am cpu0_DTLB
Address = 116570040 I am cpu0_DTLB
Address = 1581696 I am cpu0_L1I
Address = 1598082 I am cpu0_L1I
Address = 1145409 I am cpu0_L1I
Address = 1177632 I am cpu0_L1I
Address = 1177668 I am cpu0_L1I
Address = 1177729 I am cpu0_L1I
Address = 1177797 I am cpu0_L1I
Address = 1143472 I am cpu0_L1I
Address = 1979392 I am cpu0_L1D
Address = 1144881 I am cpu0_L1I
Address = 1144897 I am cpu0_L1I
Address = 1144960 I am cpu0_L1I
Address = 67784200 I am cpu0_DTLB
Address = 57814696 I am cpu0_DTLB
Address = 105194504 I am cpu0_DTLB
Address = 51371680 I am cpu0_DTLB
Address = 53887824 I am cpu0_DTLB
Address = 1178176 I am cpu0_L1I
Address = 1955888 I am cpu0_L1D
Address = 1214488 I am cpu0_L1I
Address = 1215096 I am cpu0_L1I
Address = 1618016 I am cpu0_L1I
Address = 1618050 I am cpu0_L1I
Address = 1705872 I am cpu0_L1I
Address = 1708156 I am cpu0_L1I
Address = 1708161 I am cpu0_L1I
Address = 1954512 I am cpu0_L1D
Address = 53651992 I am cpu0_DTLB
Address = 1185688 I am cpu0_L1I
Address = 55128592 I am cpu0_DTLB
Address = 1954560 I am cpu0_L1D
Address = 1730640 I am cpu0_L1I
Address = 1730693 I am cpu0_L1I
Address = 1730754 I am cpu0_L1I
Address = 1954448 I am cpu0_L1D
Address = 1954624 I am cpu0_L1D
Address = 1678236 I am cpu0_L1D
Address = 47399976 I am cpu0_DTLB
Address = 1731172 I am cpu0_L1I
Address = 1185600 I am cpu0_L1I
Address = 185526056 I am cpu0_DTLB
Address = 189606736 I am cpu0_DTLB
Address = 188391376 I am cpu0_DTLB
Address = 40296656 I am cpu0_DTLB
Address = 185628864 I am cpu0_DTLB
Address = 40345520 I am cpu0_DTLB
Address = 187897536 I am cpu0_DTLB
Address = 41797312 I am cpu0_DTLB
Address = 138983944 I am cpu0_DTLB
Address = 38286160 I am cpu0_DTLB
Address = 1954752 I am cpu0_L1D
Address = 75770608 I am cpu0_DTLB
Address = 59654812 I am cpu0_DTLB
Address = 1954736 I am cpu0_L1D
Address = 1954816 I am cpu0_L1D
Address = 1678188 I am cpu0_L1D
Address = 1733704 I am cpu0_L1D
Address = 46960152 I am cpu0_DTLB
Address = 46900080 I am cpu0_DTLB
Address = 63456448 I am cpu0_DTLB
Address = 37224544 I am cpu0_DTLB
Address = 37216928 I am cpu0_DTLB
Address = 37208768 I am cpu0_DTLB
Address = 1954976 I am cpu0_L1D
Address = 36663480 I am cpu0_DTLB
Address = 1954912 I am cpu0_L1D
Address = 1955040 I am cpu0_L1D
Address = 58279656 I am cpu0_DTLB
Address = 58279656 I am cpu0_STLB
Address = 52284768 I am cpu0_DTLB
Address = 51441840 I am cpu0_DTLB
Address = 1842528 I am cpu0_L1D
Address = 1843401 I am cpu0_L1D
Address = 1996520 I am cpu0_L1D
Address = 1843376 I am cpu0_L1D
Address = 53450733 I am cpu0_DTLB
Address = 1849325 I am cpu0_L1D
Address = 1955760 I am cpu0_L1D
Address = 52082472 I am cpu0_DTLB
Address = 1957440 I am cpu0_L1D
Address = 1957424 I am cpu0_L1D
Address = 1956064 I am cpu0_L1D
Address = 1956112 I am cpu0_L1D
Address = 1956000 I am cpu0_L1D
Address = 1956176 I am cpu0_L1D
Address = 1678108 I am cpu0_L1D
Address = 1733768 I am cpu0_L1D
Address = 1956304 I am cpu0_L1D
Address = 1956240 I am cpu0_L1D
Address = 1956368 I am cpu0_L1D
Address = 1678060 I am cpu0_L1D
Address = 1956528 I am cpu0_L1D
Address = 1956548 I am cpu0_L1D
Address = 1956464 I am cpu0_L1D
Address = 1956612 I am cpu0_L1D
Address = 1733832 I am cpu0_L1D
Address = 1186384 I am cpu0_L1I
Address = 58271480 I am cpu0_DTLB
Address = 52245296 I am cpu0_DTLB
Address = 49824016 I am cpu0_DTLB
Address = 1922808 I am cpu0_L1D
Address = 52245296 I am cpu0_STLB
Address = 1241904 I am cpu0_L1D
Address = 49824016 I am cpu0_STLB
Address = 1421584 I am cpu0_L1D
Address = 1999664 I am cpu0_L1D
Address = 2003216 I am cpu0_L1D
Address = 1704112 I am cpu0_L1I
Address = 53694141 I am cpu0_DTLB
Address = 53694141 I am cpu0_STLB
Address = 1093304 I am cpu0_L1D
Address = 1957312 I am cpu0_L1D
Address = 2010813 I am cpu0_L1D
Address = 1710232 I am cpu0_L1I
Address = 52079432 I am cpu0_DTLB
Address = 1710272 I am cpu0_L1I
Address = 52079432 I am cpu0_STLB
Address = 1243976 I am cpu0_L1D
Address = 1957024 I am cpu0_L1D
Address = 2014024 I am cpu0_L1D
Address = 1857360 I am cpu0_L1I
Address = 53651992 I am cpu0_DTLB
Address = 1857408 I am cpu0_L1I
Address = 1956676 I am cpu0_L1D
Address = 1956832 I am cpu0_L1D
Address = 1956896 I am cpu0_L1D
Address = 36185596 I am cpu0_DTLB
Address = 1710081 I am cpu0_L1I
Address = 51319132 I am cpu0_DTLB
Address = 53887912 I am cpu0_DTLB
Address = 185789048 I am cpu0_DTLB
Address = 1868464 I am cpu0_L1I
Address = 1957072 I am cpu0_L1D
Address = 51519260 I am cpu0_DTLB
Address = 51519260 I am cpu0_STLB
Address = 1244952 I am cpu0_L1D
Address = 1251138 I am cpu0_L1I
Address = 50983176 I am cpu0_DTLB
Address = 50983176 I am cpu0_STLB
Address = 1241352 I am cpu0_L1D
Address = 1872544 I am cpu0_L1I
Address = 2019100 I am cpu0_L1D
Address = 2019592 I am cpu0_L1D
Address = 2019712 I am cpu0_L1D
Address = 2019704 I am cpu0_L1D
Address = 1251212 I am cpu0_L1I
Address = 36220036 I am cpu0_DTLB
Address = 2019296 I am cpu0_L1D
Address = 55128840 I am cpu0_DTLB
Address = 1251331 I am cpu0_L1I
Address = 1721096 I am cpu0_L1D
Address = 1251393 I am cpu0_L1I
Address = 1251457 I am cpu0_L1I
Address = 1251528 I am cpu0_L1I
Address = 51989536 I am cpu0_DTLB
Address = 2019248 I am cpu0_L1D
Address = 54641528 I am cpu0_DTLB
Address = 1272864 I am cpu0_L1D
Address = 54641528 I am cpu0_STLB
Address = 2019056 I am cpu0_L1D
Address = 1273176 I am cpu0_L1D
Address = 2024312 I am cpu0_L1D
Address = 1273024 I am cpu0_L1D
Address = 2025792 I am cpu0_L1D
Address = 1273120 I am cpu0_L1D
Address = 53912240 I am cpu0_DTLB
Address = 102541340 I am cpu0_DTLB
Address = 72329484 I am cpu0_DTLB
Address = 188846812 I am cpu0_DTLB
Address = 36467184 I am cpu0_DTLB
Address = 189122012 I am cpu0_DTLB
Address = 161284588 I am cpu0_DTLB
Address = 189113724 I am cpu0_DTLB
Address = 188926636 I am cpu0_DTLB
Address = 1249929 I am cpu0_L1I
Address = 102514652 I am cpu0_DTLB
Address = 1119408 I am cpu0_L1D
Address = 83699564 I am cpu0_DTLB
Address = 73003164 I am cpu0_DTLB
Address = 122778364 I am cpu0_DTLB
Address = 189190268 I am cpu0_DTLB
Address = 119334476 I am cpu0_DTLB
Address = 97839100 I am cpu0_DTLB
Address = 188075788 I am cpu0_DTLB
Address = 1890416 I am cpu0_L1I
Address = 1890432 I am cpu0_L1I
Address = 186106560 I am cpu0_DTLB
Address = 1890503 I am cpu0_L1I
Address = 186106560 I am cpu0_STLB
Address = 1245888 I am cpu0_L1D
Address = 2028280 I am cpu0_L1D
Address = 2024768 I am cpu0_L1D
Address = 2028288 I am cpu0_L1D
Address = 2028352 I am cpu0_L1D
Address = 2024752 I am cpu0_L1D
Address = 2024512 I am cpu0_L1D
Address = 2024496 I am cpu0_L1D
Address = 1900612 I am cpu0_L1I
Address = 2024576 I am cpu0_L1D
Address = 1900677 I am cpu0_L1I
Address = 2024640 I am cpu0_L1D
Address = 2024368 I am cpu0_L1D
Address = 1593984 I am cpu0_L1I
Address = 2024388 I am cpu0_L1D
Address = 5701136 I am cpu0_DTLB
Address = 57814648 I am cpu0_DTLB
Address = 105194504 I am cpu0_DTLB
Address = 2019328 I am cpu0_L1D
Address = 50982896 I am cpu0_DTLB
Address = 50982896 I am cpu0_STLB
Address = 1245168 I am cpu0_L1D
Address = 1906498 I am cpu0_L1I
Address = 2035696 I am cpu0_L1D
Address = 1906565 I am cpu0_L1I
Address = 2024944 I am cpu0_L1D
Address = 2024968 I am cpu0_L1D
Address = 1907266 I am cpu0_L1I
Address = 2025029 I am cpu0_L1D
Address = 1867843 I am cpu0_L1I
Address = 2026864 I am cpu0_L1D
Address = 2026888 I am cpu0_L1D
Address = 1909424 I am cpu0_L1I
Address = 2035392 I am cpu0_L1D
Address = 1906691 I am cpu0_L1I
Address = 1906752 I am cpu0_L1I
Address = 1906818 I am cpu0_L1I
Address = 53912296 I am cpu0_DTLB
Address = 1906890 I am cpu0_L1I
Address = 1202310 I am cpu0_L1I
Address = 36220036 I am cpu0_DTLB
Address = 1202370 I am cpu0_L1I
Address = 1184385 I am cpu0_L1I
Address = 2035376 I am cpu0_L1D
Address = 2035488 I am cpu0_L1D
Address = 2026992 I am cpu0_L1D
Address = 36201728 I am cpu0_DTLB
Address = 2027024 I am cpu0_L1D
Address = 2026688 I am cpu0_L1D
Address = 2026672 I am cpu0_L1D
Address = 2025552 I am cpu0_L1D
Address = 2025616 I am cpu0_L1D
Address = 47436080 I am cpu0_DTLB
Address = 2025948 I am cpu0_L1D
Address = 1157088 I am cpu0_L1I
Address = 1165280 I am cpu0_L1I
Address = 1165314 I am cpu0_L1I
Address = 1165400 I am cpu0_L1I
Address = 1947584 I am cpu0_L1I
Address = 2025888 I am cpu0_L1D
Address = 1949058 I am cpu0_L1I
Address = 1949120 I am cpu0_L1I
Address = 1988704 I am cpu0_L1I
Address = 1988746 I am cpu0_L1I
Address = 2026184 I am cpu0_L1D
Address = 5696002 I am cpu0_DTLB
Address = 5622088 I am cpu0_DTLB
Address = 120755696 I am cpu0_DTLB
Address = 1079247 I am cpu0_L1I
Address = 1079316 I am cpu0_L1I
Address = 1083154 I am cpu0_L1I
Address = 1129600 I am cpu0_L1D
Address = 1345400 I am cpu0_L1I
Address = 1346216 I am cpu0_L1I
Address = 1346240 I am cpu0_L1I
Address = 1100848 I am cpu0_L1D
Address = 1137144 I am cpu0_L1D
Address = 55982432 I am cpu0_DTLB
Address = 55982432 I am cpu0_STLB
Address = 1337696 I am cpu0_L1D
Address = 2038112 I am cpu0_L1D
Address = 1947536 I am cpu0_L1I
Address = 1173520 I am cpu0_L1I
Address = 1179808 I am cpu0_L1I
Address = 2026560 I am cpu0_L1D
Address = 2026544 I am cpu0_L1D
Address = 2035536 I am cpu0_L1D
Address = 72329484 I am cpu0_DTLB
Address = 47143920 I am cpu0_DTLB
Address = 38736560 I am cpu0_DTLB
Address = 47651448 I am cpu0_DTLB
Address = 177825792 I am cpu0_DTLB
Address = 55053896 I am cpu0_DTLB
Address = 189113724 I am cpu0_DTLB
Address = 48111040 I am cpu0_DTLB
Address = 47653688 I am cpu0_DTLB
Address = 189016896 I am cpu0_DTLB
Address = 40905968 I am cpu0_DTLB
Address = 48612144 I am cpu0_DTLB
Address = 83699564 I am cpu0_DTLB
Address = 47140392 I am cpu0_DTLB
Address = 189041408 I am cpu0_DTLB
Address = 47758280 I am cpu0_DTLB
Address = 189063712 I am cpu0_DTLB
Address = 102541276 I am cpu0_DTLB
Address = 48570064 I am cpu0_DTLB
Address = 48301488 I am cpu0_DTLB
Address = 85188208 I am cpu0_DTLB
Address = 189190268 I am cpu0_DTLB
Address = 47469720 I am cpu0_DTLB
Address = 47804624 I am cpu0_DTLB
Address = 189584620 I am cpu0_DTLB
Address = 47436640 I am cpu0_DTLB
Address = 188034208 I am cpu0_DTLB
Address = 119334476 I am cpu0_DTLB
Address = 97839100 I am cpu0_DTLB
Address = 48524760 I am cpu0_DTLB
Address = 188075788 I am cpu0_DTLB
Address = 52139752 I am cpu0_DTLB
Address = 189735968 I am cpu0_DTLB
Address = 189177324 I am cpu0_DTLB
Address = 53700984 I am cpu0_DTLB
Address = 95462848 I am cpu0_DTLB
Address = 47764096 I am cpu0_DTLB
Address = 1585280 I am cpu0_L1I
Address = 1599232 I am cpu0_L1I
Address = 1599432 I am cpu0_L1I
Address = 1599300 I am cpu0_L1I
Address = 184054784 I am cpu0_DTLB
Address = 1599376 I am cpu0_L1I
Address = 1609888 I am cpu0_L1I
Address = 186004936 I am cpu0_DTLB
Address = 36177984 I am cpu0_DTLB
Address = 8227260 I am cpu0_DTLB
Address = 8208192 I am cpu0_DTLB
Address = 1593475 I am cpu0_L1I
Address = 8210480 I am cpu0_DTLB
Address = 116570040 I am cpu0_DTLB
Address = 1581696 I am cpu0_L1I
Address = 1598082 I am cpu0_L1I
Address = 53912352 I am cpu0_DTLB
Address = 1177632 I am cpu0_L1I
Address = 1177668 I am cpu0_L1I
Address = 1177729 I am cpu0_L1I
Address = 1143472 I am cpu0_L1I
Address = 1144881 I am cpu0_L1I
Address = 1144897 I am cpu0_L1I
Address = 2035632 I am cpu0_L1D
Address = 2019808 I am cpu0_L1D
Address = 1144960 I am cpu0_L1I
Address = 67784200 I am cpu0_DTLB
Address = 57814704 I am cpu0_DTLB
Address = 105194504 I am cpu0_DTLB
Address = 51371680 I am cpu0_DTLB
Address = 53887824 I am cpu0_DTLB
Address = 53773392 I am cpu0_DTLB
Address = 53773392 I am cpu0_STLB
Address = 1090640 I am cpu0_L1D
Address = 2040912 I am cpu0_L1D
Address = 1214208 I am cpu0_L1I
Address = 1214488 I am cpu0_L1I
Address = 1618050 I am cpu0_L1I
Address = 1705872 I am cpu0_L1I
Address = 1705974 I am cpu0_L1I
Address = 1708161 I am cpu0_L1I
Address = 53772016 I am cpu0_DTLB
Address = 1957616 I am cpu0_L1D
Address = 53651992 I am cpu0_DTLB
Address = 1957636 I am cpu0_L1D
Address = 1185688 I am cpu0_L1I
Address = 55128880 I am cpu0_DTLB
Address = 1185552 I am cpu0_L1I
Address = 1730640 I am cpu0_L1I
Address = 1730693 I am cpu0_L1I
Address = 1957552 I am cpu0_L1D
Address = 1957728 I am cpu0_L1D
Address = 1677980 I am cpu0_L1D
Address = 47400168 I am cpu0_DTLB
Address = 1185600 I am cpu0_L1I
Address = 185526056 I am cpu0_DTLB
Address = 189606736 I am cpu0_DTLB
Address = 188391376 I am cpu0_DTLB
Address = 40296656 I am cpu0_DTLB
Address = 185628864 I am cpu0_DTLB
Address = 40345520 I am cpu0_DTLB
Address = 187897536 I am cpu0_DTLB
Address = 41797312 I am cpu0_DTLB
Address = 138983944 I am cpu0_DTLB
Address = 38286160 I am cpu0_DTLB
Address = 1957856 I am cpu0_L1D
Address = 75770608 I am cpu0_DTLB
Address = 59654812 I am cpu0_DTLB
Address = 1957792 I am cpu0_L1D
Address = 2039840 I am cpu0_L1D
Address = 1677932 I am cpu0_L1D
Address = 1733896 I am cpu0_L1D
Address = 46960152 I am cpu0_DTLB
Address = 46900080 I am cpu0_DTLB
Address = 63456448 I am cpu0_DTLB
Address = 37224544 I am cpu0_DTLB
Address = 37216928 I am cpu0_DTLB
Address = 37208768 I am cpu0_DTLB
Address = 2040000 I am cpu0_L1D
Address = 36663480 I am cpu0_DTLB
Address = 2039984 I am cpu0_L1D
Address = 2039920 I am cpu0_L1D
Address = 2040064 I am cpu0_L1D
Address = 58274568 I am cpu0_DTLB
Address = 52287168 I am cpu0_DTLB
Address = 48979088 I am cpu0_DTLB
Address = 1958664 I am cpu0_L1D
Address = 1926848 I am cpu0_L1D
Address = 48979088 I am cpu0_STLB
Address = 1424528 I am cpu0_L1D
Address = 2047120 I am cpu0_L1D
Address = 1704112 I am cpu0_L1I
Address = 53449293 I am cpu0_DTLB
Address = 1847885 I am cpu0_L1D
Address = 2040784 I am cpu0_L1D
Address = 1710232 I am cpu0_L1I
Address = 52082792 I am cpu0_DTLB
Address = 1853544 I am cpu0_L1D
Address = 2040496 I am cpu0_L1D
Address = 1710048 I am cpu0_L1I
Address = 2040256 I am cpu0_L1D
Address = 1857296 I am cpu0_L1I
Address = 1857360 I am cpu0_L1I
Address = 1857408 I am cpu0_L1I
Address = 2040240 I am cpu0_L1D
Address = 2040328 I am cpu0_L1D
Address = 1857472 I am cpu0_L1I
Address = 2040389 I am cpu0_L1D
Address = 1710081 I am cpu0_L1I
Address = 51319132 I am cpu0_DTLB
Address = 53887912 I am cpu0_DTLB
Address = 185789048 I am cpu0_DTLB
Address = 2040128 I am cpu0_L1D
Address = 1868464 I am cpu0_L1I
Address = 2040544 I am cpu0_L1D
Address = 1251075 I am cpu0_L1I
Address = 2018780 I am cpu0_L1D
Address = 50991352 I am cpu0_DTLB
Address = 1251138 I am cpu0_L1I
Address = 50991352 I am cpu0_STLB
Address = 1241336 I am cpu0_L1D
Address = 1872544 I am cpu0_L1I
Address = 2048248 I am cpu0_L1D
Address = 2048368 I am cpu0_L1D
Address = 1251212 I am cpu0_L1I
Address = 1251264 I am cpu0_L1I
Address = 36220036 I am cpu0_DTLB
Address = 50983784 I am cpu0_DTLB
Address = 1251331 I am cpu0_L1I
Address = 2020200 I am cpu0_L1D
Address = 1251393 I am cpu0_L1I
Address = 2020248 I am cpu0_L1D
Address = 1251457 I am cpu0_L1I
Address = 2018992 I am cpu0_L1D
Address = 54637768 I am cpu0_DTLB
Address = 2018736 I am cpu0_L1D
Address = 1979592 I am cpu0_L1D
Address = 1273576 I am cpu0_L1D
Address = 50988960 I am cpu0_DTLB
Address = 1273344 I am cpu0_L1D
Address = 50988960 I am cpu0_STLB
Address = 1243040 I am cpu0_L1D
Address = 1273520 I am cpu0_L1D
Address = 2054048 I am cpu0_L1D
Address = 53912240 I am cpu0_DTLB
Address = 102541340 I am cpu0_DTLB
Address = 72329484 I am cpu0_DTLB
Address = 188846812 I am cpu0_DTLB
Address = 36467184 I am cpu0_DTLB
Address = 189122012 I am cpu0_DTLB
Address = 161284588 I am cpu0_DTLB
Address = 189113724 I am cpu0_DTLB
Address = 188926636 I am cpu0_DTLB
Address = 1249929 I am cpu0_L1I
Address = 102514652 I am cpu0_DTLB
Address = 83699564 I am cpu0_DTLB
Address = 73003164 I am cpu0_DTLB
Address = 122778364 I am cpu0_DTLB
Address = 189190268 I am cpu0_DTLB
Address = 189584620 I am cpu0_DTLB
Address = 119334476 I am cpu0_DTLB
Address = 97839100 I am cpu0_DTLB
Address = 188075788 I am cpu0_DTLB
Address = 189177324 I am cpu0_DTLB
Address = 1890416 I am cpu0_L1I
Address = 1890432 I am cpu0_L1I
Address = 186863184 I am cpu0_DTLB
Address = 186863184 I am cpu0_STLB
Address = 1490512 I am cpu0_L1D
Address = 2059912 I am cpu0_L1D
Address = 2059856 I am cpu0_L1D
Address = 2053072 I am cpu0_L1D
Address = 2059968 I am cpu0_L1D
Address = 2060032 I am cpu0_L1D
Address = 2052816 I am cpu0_L1D
Address = 2052880 I am cpu0_L1D
Address = 1900677 I am cpu0_L1I
Address = 2052944 I am cpu0_L1D
Address = 1979648 I am cpu0_L1D
Address = 1593984 I am cpu0_L1I
Address = 2053008 I am cpu0_L1D
Address = 5701136 I am cpu0_DTLB
Address = 57814648 I am cpu0_DTLB
Address = 105194504 I am cpu0_DTLB
Address = 2056176 I am cpu0_L1D
Address = 54644320 I am cpu0_DTLB
Address = 1906464 I am cpu0_L1I
Address = 2027104 I am cpu0_L1D
Address = 1906498 I am cpu0_L1I
Address = 1906565 I am cpu0_L1I
Address = 2053248 I am cpu0_L1D
Address = 2053232 I am cpu0_L1D
[...]
Address = 1703618 I am cpu0_L1I
Address = 1703683 I am cpu0_L1I
Address = 4554128 I am cpu0_ITLB
Address = 4650848 I am cpu0_L1D
Address = 4812176 I am cpu0_L1I
Address = 4812226 I am cpu0_L1I
Address = 4650880 I am cpu0_L1D
Address = 4812288 I am cpu0_L1I
Address = 4813744 I am cpu0_L1I
Address = 4813762 I am cpu0_L1I
Address = 4813824 I am cpu0_L1I
Address = 4650784 I am cpu0_L1D
Address = 3526352 I am cpu0_L1D
Address = 76900936 I am cpu0_DTLB
Address = 3422824 I am cpu0_L1D
Address = 186350056 I am cpu0_DTLB
Address = 4033000 I am cpu0_L1D
Address = 1618184 I am cpu0_L1I
Address = 1618947 I am cpu0_L1I
Address = 190003736 I am cpu0_DTLB
Address = 1642400 I am cpu0_L1D
Address = 4033128 I am cpu0_L1D
Address = 3267096 I am cpu0_L1D
Address = 1618245 I am cpu0_L1I
Address = 1618359 I am cpu0_L1I
Address = 4033224 I am cpu0_L1D
Address = 1618169 I am cpu0_L1I
Address = 4813892 I am cpu0_L1I
Address = 4813955 I am cpu0_L1I
Address = 72354376 I am cpu0_DTLB
Address = 185814544 I am cpu0_DTLB
Address = 3893832 I am cpu0_L1D
Address = 3526414 I am cpu0_L1D
Address = 4814290 I am cpu0_L1I
Address = 4820472 I am cpu0_L1D
Address = 4820496 I am cpu0_L1D
Address = 4820552 I am cpu0_L1D
Address = 189041976 I am cpu0_DTLB
Address = 3526320 I am cpu0_L1D
Address = 1453400 I am cpu0_L1D
Address = 1453368 I am cpu0_L1D
Address = 188710536 I am cpu0_DTLB
Address = 4814339 I am cpu0_L1I
Address = 4824744 I am cpu0_L1D
Address = 3526472 I am cpu0_L1D
Address = 4812357 I am cpu0_L1I
Address = 4812736 I am cpu0_L1I
Address = 4703264 I am cpu0_ITLB
Address = 4690128 I am cpu0_ITLB
Address = 4826144 I am cpu0_L1I
Address = 4826179 I am cpu0_L1I
Address = 4826240 I am cpu0_L1I
Address = 4826312 I am cpu0_L1I
Address = 4829429 I am cpu0_L1I
Address = 4829442 I am cpu0_L1I
Address = 4831298 I am cpu0_L1I
Address = 4829610 I am cpu0_L1I
Address = 4829633 I am cpu0_L1I
Address = 4825712 I am cpu0_L1I
Address = 4825730 I am cpu0_L1I
Address = 4825847 I am cpu0_L1I
Address = 4825859 I am cpu0_L1I
Address = 4814448 I am cpu0_L1I
Address = 4814464 I am cpu0_L1I
Address = 4814624 I am cpu0_L1I
Address = 1137212 I am cpu0_L1D
Address = 1137216 I am cpu0_L1D
Address = 1137144 I am cpu0_L1D
Address = 4814656 I am cpu0_L1I
Address = 4825920 I am cpu0_L1I
Address = 4834624 I am cpu0_L1I
Address = 4835696 I am cpu0_L1I
Address = 5693304 I am cpu0_DTLB
Address = 1136904 I am cpu0_L1D
Address = 4841336 I am cpu0_L1D
Address = 1136856 I am cpu0_L1D
Address = 1136824 I am cpu0_L1D
Address = 4835712 I am cpu0_L1I
Address = 1136716 I am cpu0_L1D
Address = 4829888 I am cpu0_L1I
Address = 4830304 I am cpu0_L1I
Address = 4840768 I am cpu0_L1D
Address = 4699424 I am cpu0_ITLB
Address = 4836024 I am cpu0_L1I
Address = 4836033 I am cpu0_L1I
Address = 4834718 I am cpu0_L1I
Address = 4813584 I am cpu0_L1I
Address = 5693720 I am cpu0_DTLB
Address = 4842784 I am cpu0_L1I
Address = 1136664 I am cpu0_L1D
Address = 1136632 I am cpu0_L1D
Address = 1098008 I am cpu0_L1D
Address = 1136568 I am cpu0_L1D
Address = 1136408 I am cpu0_L1D
Address = 1099624 I am cpu0_L1D
Address = 1136472 I am cpu0_L1D
Address = 1136360 I am cpu0_L1D
Address = 4834753 I am cpu0_L1I
Address = 4836096 I am cpu0_L1I
Address = 4836512 I am cpu0_L1I
Address = 4841616 I am cpu0_L1I
Address = 4842576 I am cpu0_L1I
Address = 1098640 I am cpu0_L1D
Address = 4843594 I am cpu0_L1I
Address = 4836167 I am cpu0_L1I
Address = 4836288 I am cpu0_L1I
Address = 4841800 I am cpu0_L1I
Address = 4842008 I am cpu0_L1I
Address = 4845365 I am cpu0_L1I
Address = 4841978 I am cpu0_L1I
Address = 4842680 I am cpu0_L1I
Address = 4842689 I am cpu0_L1I
Address = 4836544 I am cpu0_L1I
Address = 4836620 I am cpu0_L1I
Address = 1136312 I am cpu0_L1D
Address = 4836673 I am cpu0_L1I
Address = 4845286 I am cpu0_L1I
Address = 4835005 I am cpu0_L1I
Address = 4835013 I am cpu0_L1I
Address = 4835296 I am cpu0_L1I
Address = 1194648 I am cpu0_L1D
Address = 4825984 I am cpu0_L1I
Address = 4830600 I am cpu0_L1I
Address = 4814848 I am cpu0_L1I
Address = 1100575 I am cpu0_L1D
Address = 4815312 I am cpu0_L1I
Address = 4830761 I am cpu0_L1I
Address = 4829696 I am cpu0_L1I
Address = 4829781 I am cpu0_L1I
Address = 4830208 I am cpu0_L1I
Address = 4829824 I am cpu0_L1I
Address = 4826093 I am cpu0_L1I
Address = 4835504 I am cpu0_L1I
Address = 4835522 I am cpu0_L1I
Address = 4842949 I am cpu0_L1I
Address = 4835632 I am cpu0_L1I
Address = 4849344 I am cpu0_L1I
Address = 4832646 I am cpu0_L1I
Address = 4831448 I am cpu0_L1I
Address = 4840264 I am cpu0_L1D
Address = 4831488 I am cpu0_L1I
Address = 4831562 I am cpu0_L1I
Address = 4831853 I am cpu0_L1I
Address = 1627040 I am cpu0_L1I
Address = 1627075 I am cpu0_L1I
Address = 8198412 I am cpu0_DTLB
Address = 4856079 I am cpu0_L1D
Address = 1627136 I am cpu0_L1I
Address = 1627352 I am cpu0_L1I
Address = 4832079 I am cpu0_L1I
Address = 4832288 I am cpu0_L1I
Address = 4825236 I am cpu0_L1I
Address = 1098080 I am cpu0_L1D
Address = 4839800 I am cpu0_L1D
Address = 4952224 I am cpu0_ITLB
Address = 4826373 I am cpu0_L1I
Address = 5273840 I am cpu0_ITLB
Address = 1620547 I am cpu0_L1I
Address = 1609888 I am cpu0_L1I
Address = 36177984 I am cpu0_DTLB
Address = 1646664 I am cpu0_L1D
Address = 1620739 I am cpu0_L1I
Address = 149755304 I am cpu0_DTLB
Address = 1688112 I am cpu0_L1I
Address = 1688132 I am cpu0_L1I
Address = 4007336 I am cpu0_L1D
Address = 4007480 I am cpu0_L1D
Address = 73013776 I am cpu0_DTLB
Address = 4007396 I am cpu0_L1D
Address = 3643920 I am cpu0_L1D
Address = 1857168 I am cpu0_L1I
Address = 1857216 I am cpu0_L1I
Address = 1857281 I am cpu0_L1I
Address = 4826437 I am cpu0_L1I
Address = 4826498 I am cpu0_L1I
Address = 3244186 I am cpu0_L1I
Address = 1620857 I am cpu0_L1I
Address = 1620865 I am cpu0_L1I
Address = 1620994 I am cpu0_L1I
Address = 1646616 I am cpu0_L1D
Address = 1621058 I am cpu0_L1I
Address = 188040808 I am cpu0_DTLB
Address = 6952552 I am cpu0_L1D
Address = 1620929 I am cpu0_L1I
Address = 1647008 I am cpu0_L1D
Address = 3893816 I am cpu0_L1D
Address = 1647056 I am cpu0_L1D
Address = 1621312 I am cpu0_L1I
Address = 111977480 I am cpu0_DTLB
Address = 1621535 I am cpu0_L1I
Address = 1621578 I am cpu0_L1I
Address = 1621686 I am cpu0_L1I
Address = 1621697 I am cpu0_L1I
Address = 3244293 I am cpu0_L1I
Address = 3515400 I am cpu0_L1D
Address = 3244357 I am cpu0_L1I
Address = 1855504 I am cpu0_L1I
Address = 1855569 I am cpu0_L1I
Address = 1855619 I am cpu0_L1I
Address = 4033024 I am cpu0_L1D
Address = 1855681 I am cpu0_L1I
Address = 4826564 I am cpu0_L1I
Address = 4826625 I am cpu0_L1I
Address = 4813633 I am cpu0_L1I
Address = 4843567 I am cpu0_L1I
Address = 4651968 I am cpu0_L1D
Address = 1118944 I am cpu0_L1D
Address = 4814913 I am cpu0_L1I
Address = 4815024 I am cpu0_L1I
Address = 4815043 I am cpu0_L1I
Address = 4815129 I am cpu0_L1I
Address = 4815169 I am cpu0_L1I
Address = 4815235 I am cpu0_L1I
Address = 4830656 I am cpu0_L1I
Address = 4849408 I am cpu0_L1I
Address = 1100383 I am cpu0_L1D
Address = 4832176 I am cpu0_L1I
Address = 1100287 I am cpu0_L1D
Address = 4832192 I am cpu0_L1I
Address = 4831752 I am cpu0_L1I
Address = 4831728 I am cpu0_L1I
Address = 1100293 I am cpu0_L1D
Address = 4826689 I am cpu0_L1I
Address = 4826752 I am cpu0_L1I
Address = 4826818 I am cpu0_L1I
Address = 4826886 I am cpu0_L1I
Address = 4826946 I am cpu0_L1I
Address = 4706364 I am cpu0_ITLB
Address = 4815680 I am cpu0_L1I
Address = 1100416 I am cpu0_L1D
Address = 4815363 I am cpu0_L1I
Address = 1347682 I am cpu0_L1I
Address = 1347716 I am cpu0_L1I
Address = 1347644 I am cpu0_L1I
Address = 4857952 I am cpu0_L1I
Address = 4857986 I am cpu0_L1I
Address = 4858053 I am cpu0_L1I
Address = 1100488 I am cpu0_L1D
Address = 4858113 I am cpu0_L1I
Address = 4858320 I am cpu0_L1I
Address = 4858370 I am cpu0_L1I
Address = 4858704 I am cpu0_L1I
Address = 4858616 I am cpu0_L1I
Address = 4858625 I am cpu0_L1I
Address = 4858432 I am cpu0_L1I
Address = 4858752 I am cpu0_L1I
Address = 4858501 I am cpu0_L1I
Address = 4859648 I am cpu0_L1I
Address = 4860512 I am cpu0_L1I
Address = 4860549 I am cpu0_L1I
Address = 4858819 I am cpu0_L1I
Address = 4858881 I am cpu0_L1I
Address = 4859216 I am cpu0_L1I
Address = 4858945 I am cpu0_L1I
Address = 4859271 I am cpu0_L1I
Address = 4859008 I am cpu0_L1I
Address = 4859856 I am cpu0_L1I
Address = 4860616 I am cpu0_L1I
Address = 4859905 I am cpu0_L1I
Address = 4859976 I am cpu0_L1I
Address = 4860035 I am cpu0_L1I
Address = 4860192 I am cpu0_L1I
Address = 4860424 I am cpu0_L1I
Address = 4860229 I am cpu0_L1I
Address = 4861367 I am cpu0_L1I
Address = 4861376 I am cpu0_L1I
Address = 4861574 I am cpu0_L1I
Address = 4680477 I am cpu0_ITLB
Address = 4861639 I am cpu0_L1I
Address = 4861697 I am cpu0_L1I
Address = 4860860 I am cpu0_L1I
Address = 4860867 I am cpu0_L1I
Address = 4860931 I am cpu0_L1I
Address = 4864797 I am cpu0_L1I
Address = 4858180 I am cpu0_L1I
Address = 4858244 I am cpu0_L1I
Address = 4859075 I am cpu0_L1I
Address = 4859136 I am cpu0_L1I
Address = 4815528 I am cpu0_L1I
Address = 4815552 I am cpu0_L1I
Address = 4815458 I am cpu0_L1I
Address = 1627200 I am cpu0_L1I
Address = 1627264 I am cpu0_L1I
Address = 4860674 I am cpu0_L1I
Address = 4861821 I am cpu0_L1I
Address = 4861826 I am cpu0_L1I
Address = 4861891 I am cpu0_L1I
Address = 4859364 I am cpu0_L1I
Address = 4859393 I am cpu0_L1I
Address = 4859460 I am cpu0_L1I
Address = 4859521 I am cpu0_L1I
Address = 4859584 I am cpu0_L1I
Address = 4864552 I am cpu0_L1I
Address = 4864579 I am cpu0_L1I
Address = 4849104 I am cpu0_L1I
Address = 4849248 I am cpu0_L1I
Address = 4849280 I am cpu0_L1I
Address = 4849208 I am cpu0_L1I
Address = 4864643 I am cpu0_L1I
Address = 4676933 I am cpu0_ITLB
Address = 4869445 I am cpu0_L1I
Address = 1347781 I am cpu0_L1I
Address = 4816192 I am cpu0_L1I
Address = 4816257 I am cpu0_L1I
Address = 4828439 I am cpu0_L1I
Address = 4828481 I am cpu0_L1I
Address = 5689032 I am cpu0_DTLB
Address = 4873933 I am cpu0_L1D
Address = 4828544 I am cpu0_L1I
Address = 4828608 I am cpu0_L1I
Address = 4812429 I am cpu0_L1I
Address = 4812646 I am cpu0_L1I
Address = 4812720 I am cpu0_L1I
Address = 4812485 I am cpu0_L1I
Address = 4812550 I am cpu0_L1I
Address = 1173168 I am cpu0_L1I
Address = 1173185 I am cpu0_L1I
Address = 4650720 I am cpu0_L1D
Address = 53944976 I am cpu0_DTLB
Address = 4874896 I am cpu0_L1D
Address = 1174079 I am cpu0_L1I
Address = 1174083 I am cpu0_L1I
Address = 1174145 I am cpu0_L1I
Address = 4746272 I am cpu0_ITLB
Address = 1170678 I am cpu0_L1I
Address = 1170864 I am cpu0_L1I
Address = 1170884 I am cpu0_L1I
Address = 1170944 I am cpu0_L1I
Address = 1170464 I am cpu0_L1I
Address = 1170500 I am cpu0_L1I
Address = 1170578 I am cpu0_L1I
Address = 1171014 I am cpu0_L1I
Address = 1171100 I am cpu0_L1I
Address = 1171432 I am cpu0_L1I
Address = 1155073 I am cpu0_L1I
Address = 1157088 I am cpu0_L1I
Address = 36185680 I am cpu0_DTLB
Address = 1156312 I am cpu0_L1I
Address = 36242648 I am cpu0_DTLB
Address = 1129120 I am cpu0_L1D
Address = 1155278 I am cpu0_L1I
Address = 1157487 I am cpu0_L1I
Address = 1157821 I am cpu0_L1I
Address = 1157828 I am cpu0_L1I
Address = 1157651 I am cpu0_L1I
Address = 1279192 I am cpu0_L1D
Address = 1279248 I am cpu0_L1D
Address = 1119928 I am cpu0_L1D
Address = 1129568 I am cpu0_L1D
Address = 1118304 I am cpu0_L1D
Address = 1129080 I am cpu0_L1D
Address = 1157697 I am cpu0_L1I
Address = 1119552 I am cpu0_L1D
Address = 1164416 I am cpu0_L1I
Address = 1164482 I am cpu0_L1I
Address = 1164544 I am cpu0_L1I
Address = 1164658 I am cpu0_L1I
Address = 1078608 I am cpu0_L1I
Address = 1078665 I am cpu0_L1I
Address = 1078721 I am cpu0_L1I
Address = 1078824 I am cpu0_L1I
Address = 1083565 I am cpu0_L1I
Address = 1083584 I am cpu0_L1I
Address = 1146352 I am cpu0_L1I
Address = 1146369 I am cpu0_L1I
Address = 1146434 I am cpu0_L1I
Address = 1083649 I am cpu0_L1I
Address = 188532240 I am cpu0_DTLB
Address = 1079043 I am cpu0_L1I
Address = 1083299 I am cpu0_L1I
Address = 4726317 I am cpu0_ITLB
Address = 1083328 I am cpu0_L1I
Address = 3474960 I am cpu0_L1D
Address = 1101192 I am cpu0_L1D
Address = 1079108 I am cpu0_L1I
Address = 1080840 I am cpu0_L1I
Address = 1080936 I am cpu0_L1I
Address = 1080963 I am cpu0_L1I
Address = 1081057 I am cpu0_L1I
Address = 1089069 I am cpu0_L1I
Address = 53912576 I am cpu0_DTLB
Address = 1100960 I am cpu0_L1D
Address = 1081423 I am cpu0_L1I
Address = 1079035 I am cpu0_L1I
Address = 1164673 I am cpu0_L1I
Address = 1164736 I am cpu0_L1I
Address = 1158466 I am cpu0_L1I
Address = 1158528 I am cpu0_L1I
Address = 1143200 I am cpu0_L1I
Address = 1089091 I am cpu0_L1I
Address = 1079324 I am cpu0_L1I
Address = 1170690 I am cpu0_L1I
Address = 1170800 I am cpu0_L1I
Address = 1174210 I am cpu0_L1I
Address = 2947600 I am cpu0_L1I
Address = 2947649 I am cpu0_L1I
Address = 2947840 I am cpu0_L1I
Address = 2947749 I am cpu0_L1I
Address = 1178928 I am cpu0_L1I
Address = 1178944 I am cpu0_L1I
Address = 1179008 I am cpu0_L1I
Address = 4651776 I am cpu0_L1D
Address = 4651728 I am cpu0_L1D
Address = 4558928 I am cpu0_ITLB
Address = 1249360 I am cpu0_L1I
Address = 1249653 I am cpu0_L1I
Address = 1249454 I am cpu0_L1I
Address = 1249475 I am cpu0_L1I
Address = 1249538 I am cpu0_L1I
Address = 1252640 I am cpu0_L1I
Address = 1252672 I am cpu0_L1I
Address = 1252737 I am cpu0_L1I
Address = 36212640 I am cpu0_DTLB
Address = 4651552 I am cpu0_L1D
Address = 4651504 I am cpu0_L1D
Address = 2541344 I am cpu0_L1I
Address = 2541504 I am cpu0_L1I
Address = 1905760 I am cpu0_L1I
Address = 1905793 I am cpu0_L1I
Address = 1906027 I am cpu0_L1I
Address = 1905857 I am cpu0_L1I
Address = 2541379 I am cpu0_L1I
Address = 2541568 I am cpu0_L1I
Address = 2545216 I am cpu0_L1I
Address = 2545313 I am cpu0_L1I
Address = 5678152 I am cpu0_DTLB
Address = 2552904 I am cpu0_L1D
Address = 2545512 I am cpu0_L1I
Address = 2541443 I am cpu0_L1I
Address = 1158592 I am cpu0_L1I
Address = 4567200 I am cpu0_ITLB
Address = 4622336 I am cpu0_L1D
Address = 1179808 I am cpu0_L1I
Address = 1179842 I am cpu0_L1I
Address = 1179905 I am cpu0_L1I
Address = 1144881 I am cpu0_L1I
Address = 1144897 I am cpu0_L1I
Address = 1183808 I am cpu0_L1I
Address = 1183876 I am cpu0_L1I
Address = 102541660 I am cpu0_DTLB
Address = 1179074 I am cpu0_L1I
Address = 4622064 I am cpu0_L1D
Address = 4622448 I am cpu0_L1D
Address = 4518112 I am cpu0_ITLB
Address = 1581280 I am cpu0_L1I
Address = 1581314 I am cpu0_L1I
Address = 1581376 I am cpu0_L1I
Address = 1581441 I am cpu0_L1I
Address = 1581632 I am cpu0_L1I
Address = 1585264 I am cpu0_L1I
Address = 1585280 I am cpu0_L1I
Address = 4808704 I am cpu0_ITLB
Address = 4765360 I am cpu0_ITLB
Address = 189146848 I am cpu0_DTLB
Address = 1599232 I am cpu0_L1I
Address = 1595200 I am cpu0_L1I
Address = 1599432 I am cpu0_L1I
Address = 1599152 I am cpu0_L1I
Address = 1599170 I am cpu0_L1I
Address = 1599300 I am cpu0_L1I
Address = 1599810 I am cpu0_L1I
Address = 1599872 I am cpu0_L1I
Address = 1593408 I am cpu0_L1I
Address = 1595040 I am cpu0_L1I
Address = 186004936 I am cpu0_DTLB
Address = 1598472 I am cpu0_L1I
Address = 1623496 I am cpu0_L1D
Address = 1629824 I am cpu0_L1I
Address = 1593475 I am cpu0_L1I
Address = 1593538 I am cpu0_L1I
Address = 1594753 I am cpu0_L1I
Address = 1593601 I am cpu0_L1I
Address = 1585349 I am cpu0_L1I
Address = 1585408 I am cpu0_L1I
Address = 1581696 I am cpu0_L1I
Address = 1581508 I am cpu0_L1I
Address = 1215744 I am cpu0_L1I
Address = 67784200 I am cpu0_DTLB
Address = 1216056 I am cpu0_L1I
Address = 1598016 I am cpu0_L1I
Address = 1598082 I am cpu0_L1I
Address = 1215952 I am cpu0_L1I
Address = 1581574 I am cpu0_L1I
Address = 1145376 I am cpu0_L1I
Address = 1145409 I am cpu0_L1I
Address = 1159312 I am cpu0_L1D
Address = 4622688 I am cpu0_L1D
Address = 1213488 I am cpu0_L1I
Address = 1214128 I am cpu0_L1I
Address = 1214144 I am cpu0_L1I
Address = 1214208 I am cpu0_L1I
Address = 1214488 I am cpu0_L1I
Address = 4963456 I am cpu0_ITLB
Address = 1215096 I am cpu0_L1I
Address = 5280096 I am cpu0_ITLB
Address = 1618016 I am cpu0_L1I
Address = 1618050 I am cpu0_L1I
Address = 1215105 I am cpu0_L1I
Address = 1215392 I am cpu0_L1I
Address = 4621952 I am cpu0_L1D
Address = 1704208 I am cpu0_L1I
Address = 1704258 I am cpu0_L1I
Address = 4621936 I am cpu0_L1D
Address = 4623104 I am cpu0_L1D
Address = 1177632 I am cpu0_L1I
Address = 1177668 I am cpu0_L1I
Address = 1177729 I am cpu0_L1I
Address = 1178312 I am cpu0_L1I
Address = 40545600 I am cpu0_DTLB
Address = 40244720 I am cpu0_DTLB
Address = 1594561 I am cpu0_L1I
Address = 1177912 I am cpu0_L1I
Address = 39178032 I am cpu0_DTLB
Address = 1110904 I am cpu0_L1D
Address = 1598624 I am cpu0_L1I
Address = 1598659 I am cpu0_L1I
Address = 1598880 I am cpu0_L1I
Address = 1598914 I am cpu0_L1I
Address = 1216080 I am cpu0_L1I
Address = 1216130 I am cpu0_L1I
Address = 1158688 I am cpu0_L1I
Address = 1158720 I am cpu0_L1I
Address = 105194504 I am cpu0_DTLB
Address = 42568368 I am cpu0_DTLB
Address = 42494528 I am cpu0_DTLB
Address = 4385456 I am cpu0_L1D
Address = 4360768 I am cpu0_L1D
Address = 1177924 I am cpu0_L1I
Address = 1178120 I am cpu0_L1I
Address = 36185584 I am cpu0_DTLB
Address = 4625752 I am cpu0_L1D
Address = 1178176 I am cpu0_L1I
Address = 40605240 I am cpu0_DTLB
Address = 42599040 I am cpu0_DTLB
Address = 1702576 I am cpu0_L1I
Address = 1702596 I am cpu0_L1I
Address = 42594136 I am cpu0_DTLB
Address = 1900612 I am cpu0_L1I
Address = 1900677 I am cpu0_L1I
Address = 1596208 I am cpu0_L1I
Address = 1900738 I am cpu0_L1I
Address = 2507728 I am cpu0_L1I
Address = 2507778 I am cpu0_L1I
Address = 2507844 I am cpu0_L1I
Address = 2507909 I am cpu0_L1I
Address = 2508064 I am cpu0_L1I
Address = 2507968 I am cpu0_L1I
Address = 1236492 I am cpu0_L1D
Address = 47477216 I am cpu0_DTLB
Address = 1909888 I am cpu0_L1I
Address = 1628320 I am cpu0_L1I
Address = 1628549 I am cpu0_L1I
Address = 1909952 I am cpu0_L1I
Address = 5955545 I am cpu0_DTLB
Address = 36189560 I am cpu0_DTLB
Address = 4605304 I am cpu0_L1D
Address = 1279696 I am cpu0_L1D
Address = 1910021 I am cpu0_L1I
Address = 1910082 I am cpu0_L1I
Address = 4566672 I am cpu0_L1D
Address = 1236328 I am cpu0_L1D
Address = 1215208 I am cpu0_L1I
Address = 1215234 I am cpu0_L1I
Address = 1900928 I am cpu0_L1I
Address = 1900992 I am cpu0_L1I
Address = 4564304 I am cpu0_L1D
Address = 4566336 I am cpu0_L1D
Address = 42604400 I am cpu0_DTLB
Address = 4566848 I am cpu0_L1D
Address = 4380528 I am cpu0_L1D
Address = 4380400 I am cpu0_L1D
Address = 4053376 I am cpu0_L1I
Address = 4380256 I am cpu0_L1D
Address = 4380192 I am cpu0_L1D
Address = 1707504 I am cpu0_L1I
Address = 1707524 I am cpu0_L1I
Address = 1707587 I am cpu0_L1I
Address = 1707649 I am cpu0_L1I
Address = 1707733 I am cpu0_L1I
Address = 1707776 I am cpu0_L1I
Address = 4386664 I am cpu0_L1D
Address = 1890144 I am cpu0_L1I
Address = 1890180 I am cpu0_L1I
Address = 1890241 I am cpu0_L1I
Address = 52093800 I am cpu0_DTLB
Address = 161284584 I am cpu0_DTLB
Address = 1214592 I am cpu0_L1I
Address = 105204712 I am cpu0_DTLB
Address = 3475400 I am cpu0_L1D
Address = 1215328 I am cpu0_L1I
Address = 188765352 I am cpu0_DTLB
Address = 1890306 I am cpu0_L1I
Address = 57813680 I am cpu0_DTLB
Address = 59434936 I am cpu0_DTLB
Address = 42588192 I am cpu0_DTLB
Address = 1186384 I am cpu0_L1I
Address = 1186433 I am cpu0_L1I
Address = 4408832 I am cpu0_L1D
Address = 36220036 I am cpu0_DTLB
Address = 1705974 I am cpu0_L1I
Address = 1301984 I am cpu0_L1I
Address = 1302020 I am cpu0_L1I
Address = 4408816 I am cpu0_L1D
Address = 4409056 I am cpu0_L1D
Address = 1302080 I am cpu0_L1I
Address = 1708312 I am cpu0_L1I
Address = 1708156 I am cpu0_L1I
Address = 1708161 I am cpu0_L1I
Address = 4476032 I am cpu0_L1I
Address = 4476096 I am cpu0_L1I
Address = 1730032 I am cpu0_L1I
Address = 1729088 I am cpu0_L1I
Address = 59654316 I am cpu0_DTLB
Address = 1729152 I am cpu0_L1I
Address = 1729269 I am cpu0_L1I
Address = 42585696 I am cpu0_DTLB
Address = 1798316 I am cpu0_L1D
Address = 46961448 I am cpu0_DTLB
Address = 49419128 I am cpu0_DTLB
Address = 4490104 I am cpu0_L1D
