Constructor called
WARNING: physical memory size is smaller than virtual memory size.
WARNING: option --warmup_instructions is deprecated. Use --warmup-instructions instead.
WARNING: option --simulation_instructions is deprecated. Use --simulation-instructions instead.

*** ChampSim Multicore Out-of-Order Simulator ***
Warmup Instructions: 2000
Simulation Instructions: 5000
Number of CPUs: 1
Page size: 4096

Constructing...
Constructor called
Off-chip DRAM Size: 4 GiB Channels: 1 Width: 64-bit Data Race: 3200 MT/s
Tag check for address 4718213, I am cpu0_ITLB
Tag check for address 4718213, I am cpu0_STLB
Tag check for address 4718261, I am cpu0_ITLB
Tag check for address 1048576, I am cpu0_L1D
Tag check for address 1048576, I am cpu0_L2C
Tag check for address 1048576, I am LLC
Tag check for address 4718300, I am cpu0_ITLB
Tag check for address 4715951, I am cpu0_ITLB
Tag check for address 4716072, I am cpu0_ITLB
Tag check for address 4720547, I am cpu0_ITLB
Tag check for address 1052672, I am cpu0_L1D
Tag check for address 1052672, I am cpu0_L2C
Tag check for address 4720547, I am cpu0_STLB
Tag check for address 1052672, I am LLC
Tag check for address 1052672, I am cpu0_L1D
Tag check for address 1056768, I am cpu0_L1D
Tag check for address 1056768, I am cpu0_L2C
Tag check for address 1056768, I am LLC
Tag check for address 1060880, I am cpu0_L1D
Tag check for address 1060880, I am cpu0_L2C
Tag check for address 1060880, I am LLC
Tag check for address 1065976, I am cpu0_L1D
Tag check for address 1070080, I am cpu0_L1D
Tag check for address 1065976, I am cpu0_L2C
Tag check for address 1065976, I am LLC
Tag check for address 1070080, I am cpu0_L2C
Tag check for address 1070080, I am LLC
Tag check for address 1080965, I am cpu0_L1I
Tag check for address 1081057, I am cpu0_L1I
Tag check for address 1080965, I am cpu0_L2C
Tag check for address 1080965, I am LLC
Tag check for address 1081013, I am cpu0_L1I
Tag check for address 1081025, I am cpu0_L1I
Tag check for address 1081057, I am cpu0_L2C
Tag check for address 1081057, I am LLC
Tag check for address 1081052, I am cpu0_L1I
Tag check for address 1079043, I am cpu0_L1I
Tag check for address 1079043, I am cpu0_L2C
Tag check for address 1079043, I am LLC
Tag check for address 1078703, I am cpu0_L1I
Tag check for address 1078721, I am cpu0_L1I
Tag check for address 1078703, I am cpu0_L2C
Tag check for address 1078703, I am LLC
Tag check for address 1078824, I am cpu0_L1I
Tag check for address 1083299, I am cpu0_L1I
Tag check for address 1078721, I am cpu0_L2C
Tag check for address 1078721, I am LLC
Tag check for address 1078824, I am cpu0_L2C
Tag check for address 1078824, I am LLC
Tag check for address 4720576, I am cpu0_ITLB
Address is a hit in cpu0_ITLB
Tag check for address 4726317, I am cpu0_ITLB
Tag check for address 1083328, I am cpu0_L1I
Tag check for address 1083299, I am cpu0_L2C
Tag check for address 4726317, I am cpu0_STLB
Tag check for address 1083299, I am LLC
Tag check for address 4716315, I am cpu0_ITLB
Address is a hit in cpu0_ITLB
Tag check for address 1072680, I am cpu0_L1D
Tag check for address 1079067, I am cpu0_L1I
Address is a hit in cpu0_L1I
Tag check for address 1079108, I am cpu0_L1I
Tag check for address 1072680, I am cpu0_L2C
Tag check for address 1072680, I am LLC
Tag check for address 4718088, I am cpu0_ITLB
Address is a hit in cpu0_ITLB
Tag check for address 1080840, I am cpu0_L1I
Tag check for address 1080936, I am cpu0_L1I
Tag check for address 1083328, I am cpu0_L2C
Tag check for address 1083328, I am LLC
Tag check for address 54514378, I am cpu0_DTLB
Tag check for address 4718204, I am cpu0_ITLB
Address is a hit in cpu0_ITLB
Tag check for address 1080956, I am cpu0_L1I
Tag check for address 1079108, I am cpu0_L2C
Tag check for address 54514378, I am cpu0_STLB
Tag check for address 1079108, I am LLC
Tag check for address 53912360, I am cpu0_DTLB
Tag check for address 1064936, I am cpu0_L1D
Tag check for address 1064936, I am cpu0_L2C
Tag check for address 53912360, I am cpu0_STLB
Tag check for address 1064936, I am LLC
Tag check for address 53912392, I am cpu0_DTLB
Tag check for address 1063760, I am cpu0_L1D
Tag check for address 1063760, I am cpu0_L2C
Tag check for address 1063760, I am LLC
Tag check for address 54514382, I am cpu0_DTLB
Tag check for address 1080840, I am cpu0_L2C
Tag check for address 1080840, I am LLC
Tag check for address 1089069, I am cpu0_L1I
Tag check for address 1080936, I am cpu0_L2C
Tag check for address 1080936, I am LLC
Tag check for address 54514381, I am cpu0_DTLB
Tag check for address 1089069, I am cpu0_L2C
Tag check for address 1089069, I am LLC
Tag check for address 5696920, I am cpu0_DTLB
Tag check for address 8216672, I am cpu0_DTLB
Tag check for address 1077224, I am cpu0_L1D
Tag check for address 1077224, I am cpu0_L2C
Tag check for address 5696920, I am cpu0_STLB
Tag check for address 1077224, I am LLC
Tag check for address 140726619485599, I am cpu0_DTLB
Tag check for address 1092432, I am cpu0_L1D
Tag check for address 1072536, I am cpu0_L1D
Tag check for address 1092432, I am cpu0_L2C
Tag check for address 8216672, I am cpu0_STLB
Tag check for address 1092432, I am LLC
Tag check for address 1064624, I am cpu0_L1D
Tag check for address 1072536, I am cpu0_L2C
Tag check for address 140726619485599, I am cpu0_STLB
Tag check for address 1072536, I am LLC
Tag check for address 54514380, I am cpu0_DTLB
Tag check for address 1056680, I am cpu0_L1D
Tag check for address 1064624, I am cpu0_L2C
Tag check for address 1064624, I am LLC
Tag check for address 1056680, I am cpu0_L2C
Tag check for address 1056680, I am LLC
Tag check for address 1098442, I am cpu0_L1D
Tag check for address 1098446, I am cpu0_L1D
Tag check for address 1098442, I am cpu0_L2C
Tag check for address 1098442, I am LLC
Tag check for address 1098445, I am cpu0_L1D
Tag check for address 1098444, I am cpu0_L1D
Tag check for address 1102632, I am cpu0_L1D
Tag check for address 1102656, I am cpu0_L1D
Tag check for address 1102632, I am cpu0_L2C
Tag check for address 1102632, I am LLC
Tag check for address 1102664, I am cpu0_L1D
Tag check for address 1109400, I am cpu0_L1D
Tag check for address 1102656, I am cpu0_L2C
Tag check for address 1102656, I am LLC
Tag check for address 1097392, I am cpu0_L1D
Tag check for address 1114024, I am cpu0_L1D
Tag check for address 1109400, I am cpu0_L2C
Tag check for address 1109400, I am LLC
Tag check for address 1097392, I am cpu0_L2C
Tag check for address 1097392, I am LLC
Tag check for address 54514384, I am cpu0_DTLB
Address is a hit in cpu0_DTLB
Tag check for address 140726619485592, I am cpu0_DTLB
Tag check for address 1098448, I am cpu0_L1D
Address is a hit in cpu0_L1D
Tag check for address 1114024, I am cpu0_L2C
Tag check for address 1114024, I am LLC
Tag check for address 8216088, I am cpu0_DTLB
Tag check for address 53912360, I am cpu0_DTLB
Address is a hit in cpu0_DTLB
Tag check for address 1102632, I am cpu0_L1D
Address is a hit in cpu0_L1D
Tag check for address 8216088, I am cpu0_STLB
Tag check for address 8217360, I am cpu0_DTLB
Tag check for address 54513860, I am cpu0_DTLB
Address is a hit in cpu0_DTLB
Tag check for address 1097924, I am cpu0_L1D
Tag check for address 1097240, I am cpu0_L1D
Tag check for address 1097924, I am cpu0_L2C
Tag check for address 1097924, I am LLC
Tag check for address 53912376, I am cpu0_DTLB
Address is a hit in cpu0_DTLB
Tag check for address 1102648, I am cpu0_L1D
Address is a hit in cpu0_L1D
Tag check for address 1097240, I am cpu0_L2C
Tag check for address 1097240, I am LLC
Tag check for address 54514389, I am cpu0_DTLB
Address is a hit in cpu0_DTLB
Tag check for address 8215840, I am cpu0_DTLB
Tag check for address 1098453, I am cpu0_L1D
Address is a hit in cpu0_L1D
Tag check for address 53912360, I am cpu0_DTLB
Address is a hit in cpu0_DTLB
Tag check for address 1102632, I am cpu0_L1D
Address is a hit in cpu0_L1D
Tag check for address 1102656, I am cpu0_L1D
Address is a hit in cpu0_L1D
Tag check for address 1118304, I am cpu0_L1D
Tag check for address 1118992, I am cpu0_L1D
Tag check for address 1118304, I am cpu0_L2C
Tag check for address 1118304, I am LLC
Tag check for address 140726619485568, I am cpu0_DTLB
Tag check for address 1117704, I am cpu0_L1D
Tag check for address 1118992, I am cpu0_L2C
Tag check for address 1118992, I am LLC
Tag check for address 54514394, I am cpu0_DTLB
Address is a hit in cpu0_DTLB
Tag check for address 5696920, I am cpu0_DTLB
Address is a hit in cpu0_DTLB
Tag check for address 1098458, I am cpu0_L1D
Address is a hit in cpu0_L1D
Tag check for address 1109400, I am cpu0_L1D
Address is a hit in cpu0_L1D
Tag check for address 1117704, I am cpu0_L2C
Tag check for address 1117704, I am LLC
Tag check for address 8216672, I am cpu0_DTLB
Address is a hit in cpu0_DTLB
Tag check for address 54514396, I am cpu0_DTLB
Address is a hit in cpu0_DTLB
Tag check for address 1118304, I am cpu0_L1D
Address is a hit in cpu0_L1D
Tag check for address 1098460, I am cpu0_L1D
Address is a hit in cpu0_L1D
Tag check for address 1130008, I am cpu0_L1D
Tag check for address 1129760, I am cpu0_L1D
Tag check for address 1130008, I am cpu0_L2C
Tag check for address 1130008, I am LLC
Tag check for address 140726619485599, I am cpu0_DTLB
Tag check for address 54514392, I am cpu0_DTLB
Address is a hit in cpu0_DTLB
Tag check for address 1098456, I am cpu0_L1D
Address is a hit in cpu0_L1D
Tag check for address 1129760, I am cpu0_L2C
Tag check for address 1129760, I am LLC
Tag check for address 8216088, I am cpu0_DTLB
Address is a hit in cpu0_DTLB
Tag check for address 53912368, I am cpu0_DTLB
Address is a hit in cpu0_DTLB
Tag check for address 1130008, I am cpu0_L1D
Tag check for address 1102640, I am cpu0_L1D
Address is a hit in cpu0_L1D
Tag check for address 8215840, I am cpu0_DTLB
Address is a hit in cpu0_DTLB
Tag check for address 53912372, I am cpu0_DTLB
Address is a hit in cpu0_DTLB
Tag check for address 1129760, I am cpu0_L1D
Tag check for address 1102644, I am cpu0_L1D
Address is a hit in cpu0_L1D
Tag check for address 53912360, I am cpu0_DTLB
Address is a hit in cpu0_DTLB
Tag check for address 1123608, I am cpu0_L1D
Tag check for address 1102632, I am cpu0_L1D
Address is a hit in cpu0_L1D
Tag check for address 1123608, I am cpu0_L2C
Tag check for address 1123608, I am LLC
Tag check for address 8217360, I am cpu0_DTLB
Address is a hit in cpu0_DTLB
Tag check for address 54514425, I am cpu0_DTLB
Address is a hit in cpu0_DTLB
Tag check for address 1118992, I am cpu0_L1D
Address is a hit in cpu0_L1D
Tag check for address 1098489, I am cpu0_L1D
Address is a hit in cpu0_L1D
Tag check for address 54514426, I am cpu0_DTLB
Address is a hit in cpu0_DTLB
Tag check for address 1098490, I am cpu0_L1D
Address is a hit in cpu0_L1D
Tag check for address 53912360, I am cpu0_DTLB
Address is a hit in cpu0_DTLB
Tag check for address 1102632, I am cpu0_L1D
Address is a hit in cpu0_L1D
Tag check for address 53912384, I am cpu0_DTLB
Address is a hit in cpu0_DTLB
Tag check for address 1102656, I am cpu0_L1D
Address is a hit in cpu0_L1D
Tag check for address 54514430, I am cpu0_DTLB
Address is a hit in cpu0_DTLB
Tag check for address 1098494, I am cpu0_L1D
Address is a hit in cpu0_L1D
Tag check for address 1136031, I am cpu0_L1D
Tag check for address 1136031, I am cpu0_L2C
Tag check for address 1136031, I am LLC
Tag check for address 1136024, I am cpu0_L1D
Tag check for address 1136000, I am cpu0_L1D
Tag check for address 1136031, I am cpu0_L1D
Tag check for address 54514429, I am cpu0_DTLB
Address is a hit in cpu0_DTLB
Tag check for address 5696920, I am cpu0_DTLB
Address is a hit in cpu0_DTLB
Tag check for address 1098493, I am cpu0_L1D
Address is a hit in cpu0_L1D
Tag check for address 1109400, I am cpu0_L1D
Address is a hit in cpu0_L1D
Tag check for address 8216672, I am cpu0_DTLB
Address is a hit in cpu0_DTLB
Tag check for address 54514432, I am cpu0_DTLB
Address is a hit in cpu0_DTLB
Tag check for address 1118304, I am cpu0_L1D
Address is a hit in cpu0_L1D
Tag check for address 1098496, I am cpu0_L1D
Tag check for address 1098496, I am cpu0_L2C
Tag check for address 1098496, I am LLC
Tag check for address 140726619485599, I am cpu0_DTLB
Address is a hit in cpu0_DTLB
Tag check for address 54514428, I am cpu0_DTLB
Address is a hit in cpu0_DTLB
Tag check for address 1136031, I am cpu0_L1D
Address is a hit in cpu0_L1D
Tag check for address 1098492, I am cpu0_L1D
Address is a hit in cpu0_L1D
Tag check for address 8216088, I am cpu0_DTLB
Address is a hit in cpu0_DTLB
Tag check for address 53912368, I am cpu0_DTLB
Address is a hit in cpu0_DTLB
Tag check for address 1130008, I am cpu0_L1D
Address is a hit in cpu0_L1D
Tag check for address 1102640, I am cpu0_L1D
Address is a hit in cpu0_L1D
Tag check for address 8215840, I am cpu0_DTLB
Address is a hit in cpu0_DTLB
Tag check for address 53912372, I am cpu0_DTLB
Address is a hit in cpu0_DTLB
Tag check for address 1129760, I am cpu0_L1D
Address is a hit in cpu0_L1D
Tag check for address 1102644, I am cpu0_L1D
Address is a hit in cpu0_L1D
Tag check for address 140726619485684, I am cpu0_DTLB
Address is a hit in cpu0_DTLB
Tag check for address 8217360, I am cpu0_DTLB
Address is a hit in cpu0_DTLB
Tag check for address 1136116, I am cpu0_L1D
Tag check for address 1118992, I am cpu0_L1D
Address is a hit in cpu0_L1D
Tag check for address 1136116, I am cpu0_L2C
Tag check for address 1136116, I am LLC
Tag check for address 53912360, I am cpu0_DTLB
Address is a hit in cpu0_DTLB
Tag check for address 54514441, I am cpu0_DTLB
Address is a hit in cpu0_DTLB
Tag check for address 1102632, I am cpu0_L1D
Address is a hit in cpu0_L1D
Tag check for address 1098505, I am cpu0_L1D
Address is a hit in cpu0_L1D
Tag check for address 54514442, I am cpu0_DTLB
Address is a hit in cpu0_DTLB
Tag check for address 1098506, I am cpu0_L1D
Address is a hit in cpu0_L1D
Tag check for address 53912360, I am cpu0_DTLB
Address is a hit in cpu0_DTLB
Tag check for address 1102632, I am cpu0_L1D
Address is a hit in cpu0_L1D
Tag check for address 1102656, I am cpu0_L1D
Address is a hit in cpu0_L1D
Tag check for address 53912392, I am cpu0_DTLB
Address is a hit in cpu0_DTLB
Tag check for address 1102664, I am cpu0_L1D
Address is a hit in cpu0_L1D
Tag check for address 54513860, I am cpu0_DTLB
Address is a hit in cpu0_DTLB
Tag check for address 1097924, I am cpu0_L1D
Address is a hit in cpu0_L1D
Tag check for address 54514446, I am cpu0_DTLB
Address is a hit in cpu0_DTLB
Tag check for address 1098510, I am cpu0_L1D
Address is a hit in cpu0_L1D
Tag check for address 54514445, I am cpu0_DTLB
Address is a hit in cpu0_DTLB
Tag check for address 1098509, I am cpu0_L1D
Address is a hit in cpu0_L1D
Tag check for address 5696920, I am cpu0_DTLB
Address is a hit in cpu0_DTLB
Tag check for address 1109400, I am cpu0_L1D
Address is a hit in cpu0_L1D
Tag check for address 8216672, I am cpu0_DTLB
Address is a hit in cpu0_DTLB
Tag check for address 140726619485599, I am cpu0_DTLB
Address is a hit in cpu0_DTLB
Tag check for address 1118304, I am cpu0_L1D
Address is a hit in cpu0_L1D
Tag check for address 1136031, I am cpu0_L1D
Address is a hit in cpu0_L1D
Tag check for address 53912376, I am cpu0_DTLB
Address is a hit in cpu0_DTLB
Tag check for address 54514444, I am cpu0_DTLB
Address is a hit in cpu0_DTLB
Tag check for address 1102648, I am cpu0_L1D
Address is a hit in cpu0_L1D
Tag check for address 1098508, I am cpu0_L1D
Address is a hit in cpu0_L1D
Tag check for address 54514448, I am cpu0_DTLB
Address is a hit in cpu0_DTLB
Tag check for address 1098512, I am cpu0_L1D
Address is a hit in cpu0_L1D
Tag check for address 140726619485568, I am cpu0_DTLB
Address is a hit in cpu0_DTLB
Tag check for address 1136000, I am cpu0_L1D
Address is a hit in cpu0_L1D
Tag check for address 1136024, I am cpu0_L1D
Address is a hit in cpu0_L1D
Tag check for address 140726619485568, I am cpu0_DTLB
Address is a hit in cpu0_DTLB
Tag check for address 1136000, I am cpu0_L1D
Address is a hit in cpu0_L1D
Tag check for address 1136024, I am cpu0_L1D
Address is a hit in cpu0_L1D
Tag check for address 8216088, I am cpu0_DTLB
Address is a hit in cpu0_DTLB
Tag check for address 53912360, I am cpu0_DTLB
Address is a hit in cpu0_DTLB
Tag check for address 1130008, I am cpu0_L1D
Address is a hit in cpu0_L1D
Tag check for address 1102632, I am cpu0_L1D
Address is a hit in cpu0_L1D
Tag check for address 140726619485684, I am cpu0_DTLB
Address is a hit in cpu0_DTLB
Tag check for address 8215840, I am cpu0_DTLB
Address is a hit in cpu0_DTLB
Tag check for address 1136116, I am cpu0_L1D
Address is a hit in cpu0_L1D
Tag check for address 1129760, I am cpu0_L1D
Address is a hit in cpu0_L1D
Tag check for address 53912372, I am cpu0_DTLB
Address is a hit in cpu0_DTLB
Tag check for address 54514457, I am cpu0_DTLB
Address is a hit in cpu0_DTLB
Tag check for address 1102644, I am cpu0_L1D
Address is a hit in cpu0_L1D
Tag check for address 1098521, I am cpu0_L1D
Address is a hit in cpu0_L1D
Tag check for address 8217360, I am cpu0_DTLB
Address is a hit in cpu0_DTLB
Tag check for address 1118992, I am cpu0_L1D
Address is a hit in cpu0_L1D
Tag check for address 54514458, I am cpu0_DTLB
Address is a hit in cpu0_DTLB
Tag check for address 1098522, I am cpu0_L1D
Address is a hit in cpu0_L1D
Tag check for address 54513860, I am cpu0_DTLB
Address is a hit in cpu0_DTLB
Tag check for address 53912360, I am cpu0_DTLB
Address is a hit in cpu0_DTLB
Tag check for address 1097924, I am cpu0_L1D
Address is a hit in cpu0_L1D
Tag check for address 1102632, I am cpu0_L1D
Address is a hit in cpu0_L1D
Tag check for address 53912384, I am cpu0_DTLB
Address is a hit in cpu0_DTLB
Tag check for address 1102656, I am cpu0_L1D
Address is a hit in cpu0_L1D
Tag check for address 54514462, I am cpu0_DTLB
Address is a hit in cpu0_DTLB
Tag check for address 1098526, I am cpu0_L1D
Address is a hit in cpu0_L1D
Tag check for address 53912376, I am cpu0_DTLB
Address is a hit in cpu0_DTLB
Tag check for address 54514461, I am cpu0_DTLB
Address is a hit in cpu0_DTLB
Tag check for address 1102648, I am cpu0_L1D
Address is a hit in cpu0_L1D
Tag check for address 1098525, I am cpu0_L1D
Address is a hit in cpu0_L1D
Tag check for address 5696920, I am cpu0_DTLB
Address is a hit in cpu0_DTLB
Tag check for address 1109400, I am cpu0_L1D
Address is a hit in cpu0_L1D
Tag check for address 140726619485568, I am cpu0_DTLB
Address is a hit in cpu0_DTLB
Tag check for address 8216672, I am cpu0_DTLB
Address is a hit in cpu0_DTLB
Tag check for address 1136000, I am cpu0_L1D
Address is a hit in cpu0_L1D
Tag check for address 1118304, I am cpu0_L1D
Address is a hit in cpu0_L1D
Tag check for address 140726619485568, I am cpu0_DTLB
Address is a hit in cpu0_DTLB
Tag check for address 1136000, I am cpu0_L1D
Address is a hit in cpu0_L1D
Tag check for address 1136031, I am cpu0_L1D
Address is a hit in cpu0_L1D
Tag check for address 54514460, I am cpu0_DTLB
Address is a hit in cpu0_DTLB
Tag check for address 1098524, I am cpu0_L1D
Address is a hit in cpu0_L1D
Tag check for address 140726619485592, I am cpu0_DTLB
Address is a hit in cpu0_DTLB
Tag check for address 1136024, I am cpu0_L1D
Address is a hit in cpu0_L1D
Tag check for address 140726619485684, I am cpu0_DTLB
Address is a hit in cpu0_DTLB
Tag check for address 1136116, I am cpu0_L1D
Address is a hit in cpu0_L1D
Tag check for address 1136024, I am cpu0_L1D
Address is a hit in cpu0_L1D
Tag check for address 8216088, I am cpu0_DTLB
Address is a hit in cpu0_DTLB
Tag check for address 53912368, I am cpu0_DTLB
Address is a hit in cpu0_DTLB
Tag check for address 1130008, I am cpu0_L1D
Address is a hit in cpu0_L1D
Tag check for address 1102640, I am cpu0_L1D
Address is a hit in cpu0_L1D
Tag check for address 8215840, I am cpu0_DTLB
Address is a hit in cpu0_DTLB
Tag check for address 53912360, I am cpu0_DTLB
Address is a hit in cpu0_DTLB
Tag check for address 1129760, I am cpu0_L1D
Address is a hit in cpu0_L1D
Tag check for address 1102632, I am cpu0_L1D
Address is a hit in cpu0_L1D
Tag check for address 53912360, I am cpu0_DTLB
Address is a hit in cpu0_DTLB
Tag check for address 54514473, I am cpu0_DTLB
Address is a hit in cpu0_DTLB
Tag check for address 1102632, I am cpu0_L1D
Address is a hit in cpu0_L1D
Tag check for address 1098537, I am cpu0_L1D
Address is a hit in cpu0_L1D
Tag check for address 8217360, I am cpu0_DTLB
Address is a hit in cpu0_DTLB
Tag check for address 1118992, I am cpu0_L1D
Address is a hit in cpu0_L1D
Tag check for address 54513860, I am cpu0_DTLB
Address is a hit in cpu0_DTLB
Tag check for address 1097924, I am cpu0_L1D
Address is a hit in cpu0_L1D
Tag check for address 54514474, I am cpu0_DTLB
Address is a hit in cpu0_DTLB
Tag check for address 1098538, I am cpu0_L1D
Address is a hit in cpu0_L1D
Tag check for address 53912360, I am cpu0_DTLB
Address is a hit in cpu0_DTLB
Tag check for address 1102632, I am cpu0_L1D
Address is a hit in cpu0_L1D
Tag check for address 53912384, I am cpu0_DTLB
Address is a hit in cpu0_DTLB
Tag check for address 1102656, I am cpu0_L1D
Address is a hit in cpu0_L1D
Tag check for address 53912376, I am cpu0_DTLB
Address is a hit in cpu0_DTLB
Tag check for address 1102648, I am cpu0_L1D
Address is a hit in cpu0_L1D
Tag check for address 54514478, I am cpu0_DTLB
Address is a hit in cpu0_DTLB
Tag check for address 1098542, I am cpu0_L1D
Address is a hit in cpu0_L1D
Tag check for address 140726619485568, I am cpu0_DTLB
Address is a hit in cpu0_DTLB
Tag check for address 54514477, I am cpu0_DTLB
Address is a hit in cpu0_DTLB
Tag check for address 1136000, I am cpu0_L1D
Address is a hit in cpu0_L1D
Tag check for address 1098541, I am cpu0_L1D
Address is a hit in cpu0_L1D
Tag check for address 140726619485568, I am cpu0_DTLB
Address is a hit in cpu0_DTLB
Tag check for address 5696920, I am cpu0_DTLB
Address is a hit in cpu0_DTLB
Tag check for address 1136000, I am cpu0_L1D
Address is a hit in cpu0_L1D
Tag check for address 1109400, I am cpu0_L1D
Address is a hit in cpu0_L1D
Tag check for address 8216672, I am cpu0_DTLB
Address is a hit in cpu0_DTLB
Tag check for address 140726619485599, I am cpu0_DTLB
Address is a hit in cpu0_DTLB
Tag check for address 1118304, I am cpu0_L1D
Address is a hit in cpu0_L1D
Tag check for address 1136031, I am cpu0_L1D
Address is a hit in cpu0_L1D
Tag check for address 140726619485684, I am cpu0_DTLB
Address is a hit in cpu0_DTLB
Tag check for address 54514476, I am cpu0_DTLB
Address is a hit in cpu0_DTLB
Tag check for address 1136116, I am cpu0_L1D
Address is a hit in cpu0_L1D
Tag check for address 1098540, I am cpu0_L1D
Address is a hit in cpu0_L1D
Tag check for address 54514480, I am cpu0_DTLB
Address is a hit in cpu0_DTLB
Tag check for address 1098544, I am cpu0_L1D
Address is a hit in cpu0_L1D
Tag check for address 140726619485592, I am cpu0_DTLB
Address is a hit in cpu0_DTLB
Tag check for address 1136024, I am cpu0_L1D
Address is a hit in cpu0_L1D
Tag check for address 140726619485592, I am cpu0_DTLB
Address is a hit in cpu0_DTLB
Tag check for address 8216088, I am cpu0_DTLB
Address is a hit in cpu0_DTLB
Tag check for address 1136024, I am cpu0_L1D
Address is a hit in cpu0_L1D
Tag check for address 1130008, I am cpu0_L1D
Address is a hit in cpu0_L1D
Tag check for address 53912360, I am cpu0_DTLB
Address is a hit in cpu0_DTLB
Tag check for address 1102632, I am cpu0_L1D
Address is a hit in cpu0_L1D
Tag check for address 54513860, I am cpu0_DTLB
Address is a hit in cpu0_DTLB
Tag check for address 8215840, I am cpu0_DTLB
Address is a hit in cpu0_DTLB
Tag check for address 1097924, I am cpu0_L1D
Address is a hit in cpu0_L1D
Tag check for address 1129760, I am cpu0_L1D
Address is a hit in cpu0_L1D
Tag check for address 53912372, I am cpu0_DTLB
Address is a hit in cpu0_DTLB
Tag check for address 54514489, I am cpu0_DTLB
Address is a hit in cpu0_DTLB
Tag check for address 1102644, I am cpu0_L1D
Address is a hit in cpu0_L1D
Tag check for address 1098553, I am cpu0_L1D
Address is a hit in cpu0_L1D
Tag check for address 8217360, I am cpu0_DTLB
Address is a hit in cpu0_DTLB
Tag check for address 1118992, I am cpu0_L1D
Address is a hit in cpu0_L1D
Tag check for address 54514490, I am cpu0_DTLB
Address is a hit in cpu0_DTLB
Tag check for address 1098554, I am cpu0_L1D
Address is a hit in cpu0_L1D
Tag check for address 53912376, I am cpu0_DTLB
Address is a hit in cpu0_DTLB
Tag check for address 1102648, I am cpu0_L1D
Address is a hit in cpu0_L1D
Tag check for address 1102632, I am cpu0_L1D
Address is a hit in cpu0_L1D
Tag check for address 53912384, I am cpu0_DTLB
Address is a hit in cpu0_DTLB
Tag check for address 1102656, I am cpu0_L1D
Address is a hit in cpu0_L1D
Tag check for address 140726619485568, I am cpu0_DTLB
Address is a hit in cpu0_DTLB
Tag check for address 1136000, I am cpu0_L1D
Address is a hit in cpu0_L1D
Tag check for address 140726619485568, I am cpu0_DTLB
Address is a hit in cpu0_DTLB
Tag check for address 1136000, I am cpu0_L1D
Address is a hit in cpu0_L1D
Tag check for address 54514494, I am cpu0_DTLB
Address is a hit in cpu0_DTLB
Tag check for address 1098558, I am cpu0_L1D
Address is a hit in cpu0_L1D
Tag check for address 140726619485684, I am cpu0_DTLB
Address is a hit in cpu0_DTLB
Tag check for address 54514493, I am cpu0_DTLB
Address is a hit in cpu0_DTLB
Tag check for address 1136116, I am cpu0_L1D
Address is a hit in cpu0_L1D
Tag check for address 1098557, I am cpu0_L1D
Address is a hit in cpu0_L1D
Tag check for address 5696920, I am cpu0_DTLB
Address is a hit in cpu0_DTLB
Tag check for address 1109400, I am cpu0_L1D
Address is a hit in cpu0_L1D
Tag check for address 8216672, I am cpu0_DTLB
Address is a hit in cpu0_DTLB
Tag check for address 140726619485599, I am cpu0_DTLB
Address is a hit in cpu0_DTLB
Tag check for address 1118304, I am cpu0_L1D
Address is a hit in cpu0_L1D
Tag check for address 1136031, I am cpu0_L1D
Address is a hit in cpu0_L1D
Tag check for address 54514492, I am cpu0_DTLB
Address is a hit in cpu0_DTLB
Tag check for address 1098556, I am cpu0_L1D
Address is a hit in cpu0_L1D
Tag check for address 54514496, I am cpu0_DTLB
Address is a hit in cpu0_DTLB
Tag check for address 1098560, I am cpu0_L1D
Tag check for address 1098560, I am cpu0_L2C
Tag check for address 1098560, I am LLC
Tag check for address 140726619485592, I am cpu0_DTLB
Address is a hit in cpu0_DTLB
Tag check for address 1136024, I am cpu0_L1D
Address is a hit in cpu0_L1D
Tag check for address 54513860, I am cpu0_DTLB
Address is a hit in cpu0_DTLB
Tag check for address 140726619485592, I am cpu0_DTLB
Address is a hit in cpu0_DTLB
Tag check for address 1097924, I am cpu0_L1D
Address is a hit in cpu0_L1D
Tag check for address 1136024, I am cpu0_L1D
Address is a hit in cpu0_L1D
Tag check for address 8216088, I am cpu0_DTLB
Address is a hit in cpu0_DTLB
Tag check for address 53912360, I am cpu0_DTLB
Address is a hit in cpu0_DTLB
Tag check for address 1130008, I am cpu0_L1D
Address is a hit in cpu0_L1D
Tag check for address 1102632, I am cpu0_L1D
Address is a hit in cpu0_L1D
Tag check for address 8215840, I am cpu0_DTLB
Address is a hit in cpu0_DTLB
Tag check for address 53912372, I am cpu0_DTLB
Address is a hit in cpu0_DTLB
Tag check for address 1129760, I am cpu0_L1D
Address is a hit in cpu0_L1D
Tag check for address 1102644, I am cpu0_L1D
Address is a hit in cpu0_L1D
Tag check for address 53912360, I am cpu0_DTLB
Address is a hit in cpu0_DTLB
Tag check for address 54514509, I am cpu0_DTLB
Address is a hit in cpu0_DTLB
Tag check for address 1102632, I am cpu0_L1D
Address is a hit in cpu0_L1D
Tag check for address 1098573, I am cpu0_L1D
Address is a hit in cpu0_L1D
Tag check for address 53912376, I am cpu0_DTLB
Address is a hit in cpu0_DTLB
Tag check for address 8217360, I am cpu0_DTLB
Address is a hit in cpu0_DTLB
Tag check for address 1102648, I am cpu0_L1D
Address is a hit in cpu0_L1D
Tag check for address 1118992, I am cpu0_L1D
Address is a hit in cpu0_L1D
Tag check for address 140726619485568, I am cpu0_DTLB
Address is a hit in cpu0_DTLB
Tag check for address 54514510, I am cpu0_DTLB
Address is a hit in cpu0_DTLB
Tag check for address 1136000, I am cpu0_L1D
Address is a hit in cpu0_L1D
Tag check for address 1098574, I am cpu0_L1D
Address is a hit in cpu0_L1D
Tag check for address 140726619485568, I am cpu0_DTLB
Address is a hit in cpu0_DTLB
Tag check for address 53912360, I am cpu0_DTLB
Address is a hit in cpu0_DTLB
Tag check for address 1136000, I am cpu0_L1D
Address is a hit in cpu0_L1D
Tag check for address 1102632, I am cpu0_L1D
Address is a hit in cpu0_L1D
Tag check for address 53912384, I am cpu0_DTLB
Address is a hit in cpu0_DTLB
Tag check for address 1102656, I am cpu0_L1D
Address is a hit in cpu0_L1D
Tag check for address 140726619485684, I am cpu0_DTLB
Address is a hit in cpu0_DTLB
Tag check for address 1136116, I am cpu0_L1D
Address is a hit in cpu0_L1D
Tag check for address 54514514, I am cpu0_DTLB
Address is a hit in cpu0_DTLB
Tag check for address 1098578, I am cpu0_L1D
Address is a hit in cpu0_L1D
Tag check for address 54514513, I am cpu0_DTLB
Address is a hit in cpu0_DTLB
Tag check for address 1098577, I am cpu0_L1D
Address is a hit in cpu0_L1D
Tag check for address 5696920, I am cpu0_DTLB
Address is a hit in cpu0_DTLB
Tag check for address 1109400, I am cpu0_L1D
Address is a hit in cpu0_L1D
Tag check for address 8216672, I am cpu0_DTLB
Address is a hit in cpu0_DTLB
Tag check for address 140726619485599, I am cpu0_DTLB
Address is a hit in cpu0_DTLB
Tag check for address 1118304, I am cpu0_L1D
Address is a hit in cpu0_L1D
Tag check for address 1136031, I am cpu0_L1D
Address is a hit in cpu0_L1D
Tag check for address 54513860, I am cpu0_DTLB
Address is a hit in cpu0_DTLB
Tag check for address 1097924, I am cpu0_L1D
Address is a hit in cpu0_L1D
Tag check for address 1098576, I am cpu0_L1D
Address is a hit in cpu0_L1D
Tag check for address 54514516, I am cpu0_DTLB
Address is a hit in cpu0_DTLB
Tag check for address 1098580, I am cpu0_L1D
Address is a hit in cpu0_L1D
Tag check for address 140726619485592, I am cpu0_DTLB
Address is a hit in cpu0_DTLB
Tag check for address 1136024, I am cpu0_L1D
Address is a hit in cpu0_L1D
Tag check for address 140726619485592, I am cpu0_DTLB
Address is a hit in cpu0_DTLB
Tag check for address 8216088, I am cpu0_DTLB
Address is a hit in cpu0_DTLB
Tag check for address 1136024, I am cpu0_L1D
Address is a hit in cpu0_L1D
Tag check for address 1130008, I am cpu0_L1D
Address is a hit in cpu0_L1D
Tag check for address 53912360, I am cpu0_DTLB
Address is a hit in cpu0_DTLB
Tag check for address 1102632, I am cpu0_L1D
Address is a hit in cpu0_L1D
Tag check for address 53912376, I am cpu0_DTLB
Address is a hit in cpu0_DTLB
Tag check for address 8215840, I am cpu0_DTLB
Address is a hit in cpu0_DTLB
Tag check for address 1102648, I am cpu0_L1D
Address is a hit in cpu0_L1D
Tag check for address 1129760, I am cpu0_L1D
Address is a hit in cpu0_L1D
Tag check for address 53912372, I am cpu0_DTLB
Address is a hit in cpu0_DTLB
Tag check for address 54514525, I am cpu0_DTLB
Address is a hit in cpu0_DTLB
Tag check for address 1102644, I am cpu0_L1D
Address is a hit in cpu0_L1D
Tag check for address 1098589, I am cpu0_L1D
Address is a hit in cpu0_L1D
Tag check for address 140726619485568, I am cpu0_DTLB
Address is a hit in cpu0_DTLB
Tag check for address 8217360, I am cpu0_DTLB
Address is a hit in cpu0_DTLB
Tag check for address 1136000, I am cpu0_L1D
Address is a hit in cpu0_L1D
Tag check for address 1118992, I am cpu0_L1D
Address is a hit in cpu0_L1D
Tag check for address 140726619485568, I am cpu0_DTLB
Address is a hit in cpu0_DTLB
Tag check for address 1136000, I am cpu0_L1D
Address is a hit in cpu0_L1D
Tag check for address 54514526, I am cpu0_DTLB
Address is a hit in cpu0_DTLB
Tag check for address 1098590, I am cpu0_L1D
Address is a hit in cpu0_L1D
Tag check for address 140726619485684, I am cpu0_DTLB
Address is a hit in cpu0_DTLB
Tag check for address 53912360, I am cpu0_DTLB
Address is a hit in cpu0_DTLB
Tag check for address 1136116, I am cpu0_L1D
Address is a hit in cpu0_L1D
Tag check for address 1102632, I am cpu0_L1D
Address is a hit in cpu0_L1D
Tag check for address 53912384, I am cpu0_DTLB
Address is a hit in cpu0_DTLB
Tag check for address 1102656, I am cpu0_L1D
Address is a hit in cpu0_L1D
Tag check for address 54514530, I am cpu0_DTLB
Address is a hit in cpu0_DTLB
Tag check for address 1098594, I am cpu0_L1D
Address is a hit in cpu0_L1D
Tag check for address 54513860, I am cpu0_DTLB
Address is a hit in cpu0_DTLB
Tag check for address 1097924, I am cpu0_L1D
Address is a hit in cpu0_L1D
Tag check for address 1098593, I am cpu0_L1D
Address is a hit in cpu0_L1D
Tag check for address 5696920, I am cpu0_DTLB
Address is a hit in cpu0_DTLB
Tag check for address 1109400, I am cpu0_L1D
Address is a hit in cpu0_L1D
Tag check for address 8216672, I am cpu0_DTLB
Address is a hit in cpu0_DTLB
Tag check for address 140726619485599, I am cpu0_DTLB
Address is a hit in cpu0_DTLB
Tag check for address 1118304, I am cpu0_L1D
Address is a hit in cpu0_L1D
Tag check for address 1136031, I am cpu0_L1D
Address is a hit in cpu0_L1D
Tag check for address 54514528, I am cpu0_DTLB
Address is a hit in cpu0_DTLB
Tag check for address 1098592, I am cpu0_L1D
Address is a hit in cpu0_L1D
Tag check for address 54514532, I am cpu0_DTLB
Address is a hit in cpu0_DTLB
Tag check for address 1098596, I am cpu0_L1D
Address is a hit in cpu0_L1D
Tag check for address 140726619485592, I am cpu0_DTLB
Address is a hit in cpu0_DTLB
Tag check for address 1136024, I am cpu0_L1D
Address is a hit in cpu0_L1D
Tag check for address 53912376, I am cpu0_DTLB
Address is a hit in cpu0_DTLB
Tag check for address 140726619485592, I am cpu0_DTLB
Address is a hit in cpu0_DTLB
Tag check for address 1102648, I am cpu0_L1D
Address is a hit in cpu0_L1D
Tag check for address 1136024, I am cpu0_L1D
Address is a hit in cpu0_L1D
Tag check for address 8216088, I am cpu0_DTLB
Address is a hit in cpu0_DTLB
Tag check for address 53912360, I am cpu0_DTLB
Address is a hit in cpu0_DTLB
Tag check for address 1130008, I am cpu0_L1D
Address is a hit in cpu0_L1D
Tag check for address 1102632, I am cpu0_L1D
Address is a hit in cpu0_L1D
Tag check for address 8215840, I am cpu0_DTLB
Address is a hit in cpu0_DTLB
Tag check for address 53912372, I am cpu0_DTLB
Address is a hit in cpu0_DTLB
Tag check for address 1129760, I am cpu0_L1D
Address is a hit in cpu0_L1D
Tag check for address 1102644, I am cpu0_L1D
Address is a hit in cpu0_L1D
Tag check for address 140726619485568, I am cpu0_DTLB
Address is a hit in cpu0_DTLB
Tag check for address 53912360, I am cpu0_DTLB
Address is a hit in cpu0_DTLB
Tag check for address 1136000, I am cpu0_L1D
Address is a hit in cpu0_L1D
Tag check for address 1102632, I am cpu0_L1D
Address is a hit in cpu0_L1D
Tag check for address 140726619485568, I am cpu0_DTLB
Address is a hit in cpu0_DTLB
Tag check for address 54514541, I am cpu0_DTLB
Address is a hit in cpu0_DTLB
Tag check for address 1136000, I am cpu0_L1D
Address is a hit in cpu0_L1D
Tag check for address 1098605, I am cpu0_L1D
Address is a hit in cpu0_L1D
Tag check for address 8217360, I am cpu0_DTLB
Address is a hit in cpu0_DTLB
Tag check for address 1118992, I am cpu0_L1D
Address is a hit in cpu0_L1D
Tag check for address 54514542, I am cpu0_DTLB
Address is a hit in cpu0_DTLB
Tag check for address 1098606, I am cpu0_L1D
Address is a hit in cpu0_L1D
Tag check for address 140726619485684, I am cpu0_DTLB
Address is a hit in cpu0_DTLB
Tag check for address 53912360, I am cpu0_DTLB
Address is a hit in cpu0_DTLB
Tag check for address 1136116, I am cpu0_L1D
Address is a hit in cpu0_L1D
Tag check for address 1102632, I am cpu0_L1D
Address is a hit in cpu0_L1D
Tag check for address 53912384, I am cpu0_DTLB
Address is a hit in cpu0_DTLB
Tag check for address 1102656, I am cpu0_L1D
Address is a hit in cpu0_L1D
Tag check for address 4721409, I am cpu0_ITLB
Address is a hit in cpu0_ITLB
Tag check for address 1084161, I am cpu0_L1I
Tag check for address 1084161, I am cpu0_L2C
Tag check for address 1084161, I am LLC
Tag check for address 54514546, I am cpu0_DTLB
Address is a hit in cpu0_DTLB
Tag check for address 4727913, I am cpu0_ITLB
Tag check for address 1098610, I am cpu0_L1D
Address is a hit in cpu0_L1D
Tag check for address 4727913, I am cpu0_STLB
Tag check for address 54514545, I am cpu0_DTLB
Address is a hit in cpu0_DTLB
Tag check for address 4727937, I am cpu0_ITLB
Tag check for address 4721463, I am cpu0_ITLB
Address is a hit in cpu0_ITLB
Tag check for address 1098609, I am cpu0_L1D
Address is a hit in cpu0_L1D
Tag check for address 1070184, I am cpu0_L1D
Tag check for address 1084215, I am cpu0_L1I
Tag check for address 1070184, I am cpu0_L2C
Tag check for address 1070184, I am LLC
Tag check for address 54513860, I am cpu0_DTLB
Address is a hit in cpu0_DTLB
Tag check for address 4721472, I am cpu0_ITLB
Address is a hit in cpu0_ITLB
Tag check for address 4717968, I am cpu0_ITLB
Address is a hit in cpu0_ITLB
Tag check for address 1097924, I am cpu0_L1D
Address is a hit in cpu0_L1D
Tag check for address 1084224, I am cpu0_L1I
Tag check for address 1080720, I am cpu0_L1I
Tag check for address 1084224, I am cpu0_L2C
Tag check for address 1084224, I am LLC
Tag check for address 5697064, I am cpu0_DTLB
Address is a hit in cpu0_DTLB
Tag check for address 4715856, I am cpu0_ITLB
Address is a hit in cpu0_ITLB
Tag check for address 1109544, I am cpu0_L1D
Tag check for address 1078608, I am cpu0_L1I
Tag check for address 1109544, I am cpu0_L2C
Tag check for address 1109544, I am LLC
Tag check for address 1080720, I am cpu0_L2C
Tag check for address 1080720, I am LLC
Tag check for address 4715913, I am cpu0_ITLB
Address is a hit in cpu0_ITLB
Tag check for address 1078665, I am cpu0_L1I
Address is a hit in cpu0_L1I
Tag check for address 1078608, I am cpu0_L2C
Tag check for address 1078608, I am LLC
Tag check for address 54514544, I am cpu0_DTLB
Address is a hit in cpu0_DTLB
Tag check for address 8215360, I am cpu0_DTLB
Address is a hit in cpu0_DTLB
Tag check for address 1098608, I am cpu0_L1D
Address is a hit in cpu0_L1D
Tag check for address 1129280, I am cpu0_L1D
Tag check for address 1139817, I am cpu0_L1I
Tag check for address 1139841, I am cpu0_L1I
Tag check for address 1129280, I am cpu0_L2C
Tag check for address 1129280, I am LLC
Tag check for address 53912376, I am cpu0_DTLB
Address is a hit in cpu0_DTLB
Tag check for address 1102648, I am cpu0_L1D
Address is a hit in cpu0_L1D
Tag check for address 1139817, I am cpu0_L2C
Tag check for address 1139817, I am LLC
Tag check for address 4720813, I am cpu0_ITLB
Address is a hit in cpu0_ITLB
Tag check for address 1083565, I am cpu0_L1I
Tag check for address 1083584, I am cpu0_L1I
Tag check for address 1139841, I am cpu0_L2C
Tag check for address 1139841, I am LLC
Tag check for address 1083565, I am cpu0_L2C
Tag check for address 1083565, I am LLC
Tag check for address 140726619485568, I am cpu0_DTLB
Address is a hit in cpu0_DTLB
Tag check for address 4754928, I am cpu0_ITLB
Tag check for address 1136000, I am cpu0_L1D
Address is a hit in cpu0_L1D
Tag check for address 1083584, I am cpu0_L2C
Tag check for address 4754928, I am cpu0_STLB
Tag check for address 1083584, I am LLC
Tag check for address 140726619485568, I am cpu0_DTLB
Address is a hit in cpu0_DTLB
Tag check for address 1136000, I am cpu0_L1D
Address is a hit in cpu0_L1D
Tag check for address 1072624, I am cpu0_L1D
Tag check for address 1072624, I am cpu0_L2C
Tag check for address 1072624, I am LLC
Tag check for address 140726619485684, I am cpu0_DTLB
Address is a hit in cpu0_DTLB
Tag check for address 4754933, I am cpu0_ITLB
Tag check for address 1136116, I am cpu0_L1D
Address is a hit in cpu0_L1D
Tag check for address 8215224, I am cpu0_DTLB
Address is a hit in cpu0_DTLB
Tag check for address 4754968, I am cpu0_ITLB
Tag check for address 1129144, I am cpu0_L1D
Tag check for address 1129144, I am cpu0_L2C
Tag check for address 1129144, I am LLC
Tag check for address 1146352, I am cpu0_L1I
Tag check for address 1146357, I am cpu0_L1I
Tag check for address 1146352, I am cpu0_L2C
Tag check for address 1146352, I am LLC
Tag check for address 1146369, I am cpu0_L1I
Tag check for address 1146392, I am cpu0_L1I
Tag check for address 1146369, I am cpu0_L2C
Tag check for address 1146369, I am LLC
Tag check for address 8215360, I am cpu0_DTLB
Address is a hit in cpu0_DTLB
Tag check for address 120755785, I am cpu0_DTLB
Tag check for address 1129280, I am cpu0_L1D
Address is a hit in cpu0_L1D
Tag check for address 1146434, I am cpu0_L1I
Tag check for address 1146434, I am cpu0_L2C
Tag check for address 120755785, I am cpu0_STLB
Tag check for address 1146434, I am LLC
Tag check for address 4755046, I am cpu0_ITLB
Address is a hit in cpu0_ITLB
Tag check for address 1063240, I am cpu0_L1D
Tag check for address 1146470, I am cpu0_L1I
Tag check for address 1063240, I am cpu0_L2C
Tag check for address 1063240, I am LLC
Tag check for address 54514554, I am cpu0_DTLB
Address is a hit in cpu0_DTLB
Tag check for address 4720878, I am cpu0_ITLB
Address is a hit in cpu0_ITLB
Tag check for address 1098618, I am cpu0_L1D
Address is a hit in cpu0_L1D
Tag check for address 1083630, I am cpu0_L1I
Address is a hit in cpu0_L1I
Tag check for address 1083649, I am cpu0_L1I
Tag check for address 1083649, I am cpu0_L2C
Tag check for address 1083649, I am LLC
Tag check for address 54514553, I am cpu0_DTLB
Address is a hit in cpu0_DTLB
Tag check for address 5696904, I am cpu0_DTLB
Address is a hit in cpu0_DTLB
Tag check for address 1098617, I am cpu0_L1D
Address is a hit in cpu0_L1D
Tag check for address 1109384, I am cpu0_L1D
Address is a hit in cpu0_L1D
Tag check for address 54514565, I am cpu0_DTLB
Address is a hit in cpu0_DTLB
Tag check for address 1098629, I am cpu0_L1D
Tag check for address 1098629, I am cpu0_L2C
Tag check for address 1098629, I am LLC
Tag check for address 8217360, I am cpu0_DTLB
Address is a hit in cpu0_DTLB
Tag check for address 1118992, I am cpu0_L1D
Address is a hit in cpu0_L1D
Tag check for address 1132872, I am cpu0_L1D
Tag check for address 1132872, I am cpu0_L2C
Tag check for address 1132872, I am LLC
Tag check for address 8215840, I am cpu0_DTLB
Address is a hit in cpu0_DTLB
Tag check for address 1129760, I am cpu0_L1D
Address is a hit in cpu0_L1D
Tag check for address 54513860, I am cpu0_DTLB
Address is a hit in cpu0_DTLB
Tag check for address 8218484, I am cpu0_DTLB
Address is a hit in cpu0_DTLB
Tag check for address 1097924, I am cpu0_L1D
Address is a hit in cpu0_L1D
Tag check for address 1120116, I am cpu0_L1D
Tag check for address 1120116, I am cpu0_L2C
Tag check for address 1120116, I am LLC
Tag check for address 53912376, I am cpu0_DTLB
Address is a hit in cpu0_DTLB
Tag check for address 8216088, I am cpu0_DTLB
Address is a hit in cpu0_DTLB
Tag check for address 1102648, I am cpu0_L1D
Address is a hit in cpu0_L1D
Tag check for address 1130008, I am cpu0_L1D
Address is a hit in cpu0_L1D
Tag check for address 140726619485568, I am cpu0_DTLB
Address is a hit in cpu0_DTLB
Tag check for address 8216088, I am cpu0_DTLB
Address is a hit in cpu0_DTLB
Tag check for address 1136000, I am cpu0_L1D
Address is a hit in cpu0_L1D
Tag check for address 1130008, I am cpu0_L1D
Address is a hit in cpu0_L1D
Tag check for address 1152585, I am cpu0_L1D
Tag check for address 1152585, I am cpu0_L2C
Tag check for address 1152585, I am LLC
Tag check for address 54514558, I am cpu0_DTLB
Address is a hit in cpu0_DTLB
Tag check for address 1098622, I am cpu0_L1D
Address is a hit in cpu0_L1D
Tag check for address 54514557, I am cpu0_DTLB
Address is a hit in cpu0_DTLB
Tag check for address 5696920, I am cpu0_DTLB
Address is a hit in cpu0_DTLB
Tag check for address 1098621, I am cpu0_L1D
Address is a hit in cpu0_L1D
Tag check for address 1109400, I am cpu0_L1D
Address is a hit in cpu0_L1D
Tag check for address 8215152, I am cpu0_DTLB
Address is a hit in cpu0_DTLB
Tag check for address 140726619485496, I am cpu0_DTLB
Address is a hit in cpu0_DTLB
Tag check for address 1129072, I am cpu0_L1D
Tag check for address 1135928, I am cpu0_L1D
Tag check for address 1129072, I am cpu0_L2C
Tag check for address 1129072, I am LLC
Tag check for address 140726619485488, I am cpu0_DTLB
Address is a hit in cpu0_DTLB
Tag check for address 8216672, I am cpu0_DTLB
Address is a hit in cpu0_DTLB
Tag check for address 1135920, I am cpu0_L1D
Tag check for address 1118304, I am cpu0_L1D
Address is a hit in cpu0_L1D
Tag check for address 1135928, I am cpu0_L2C
Tag check for address 1135928, I am LLC
Tag check for address 140726619485480, I am cpu0_DTLB
Address is a hit in cpu0_DTLB
Tag check for address 1135912, I am cpu0_L1D
Tag check for address 1135904, I am cpu0_L1D
Tag check for address 140726619485464, I am cpu0_DTLB
Address is a hit in cpu0_DTLB
Tag check for address 1135896, I am cpu0_L1D
Tag check for address 1135888, I am cpu0_L1D
Tag check for address 140726619485448, I am cpu0_DTLB
Address is a hit in cpu0_DTLB
Tag check for address 1135880, I am cpu0_L1D
Address is a hit in cpu0_L1D
Tag check for address 1135567, I am cpu0_L1D
Tag check for address 1135567, I am cpu0_L2C
Tag check for address 1135567, I am LLC
Tag check for address 140726619485220, I am cpu0_DTLB
Address is a hit in cpu0_DTLB
Tag check for address 54514556, I am cpu0_DTLB
Address is a hit in cpu0_DTLB
Tag check for address 1135652, I am cpu0_L1D
Tag check for address 1098620, I am cpu0_L1D
Address is a hit in cpu0_L1D
Tag check for address 1135652, I am cpu0_L2C
Tag check for address 1135652, I am LLC
Tag check for address 140726619485116, I am cpu0_DTLB
Address is a hit in cpu0_DTLB
Tag check for address 1135548, I am cpu0_L1D
Tag check for address 1135552, I am cpu0_L1D
Tag check for address 1135548, I am cpu0_L2C
Tag check for address 1135548, I am LLC
Tag check for address 140726619485124, I am cpu0_DTLB
Address is a hit in cpu0_DTLB
Tag check for address 1135556, I am cpu0_L1D
Tag check for address 1135560, I am cpu0_L1D
Tag check for address 140726619485104, I am cpu0_DTLB
Address is a hit in cpu0_DTLB
Tag check for address 54514560, I am cpu0_DTLB
Address is a hit in cpu0_DTLB
Tag check for address 1135536, I am cpu0_L1D
Tag check for address 1098624, I am cpu0_L1D
Address is a hit in cpu0_L1D
Tag check for address 8216088, I am cpu0_DTLB
Address is a hit in cpu0_DTLB
Tag check for address 8217360, I am cpu0_DTLB
Address is a hit in cpu0_DTLB
Tag check for address 1130008, I am cpu0_L1D
Address is a hit in cpu0_L1D
Tag check for address 1118992, I am cpu0_L1D
Address is a hit in cpu0_L1D
Tag check for address 140726619485228, I am cpu0_DTLB
Address is a hit in cpu0_DTLB
Tag check for address 54513860, I am cpu0_DTLB
Address is a hit in cpu0_DTLB
Tag check for address 1135660, I am cpu0_L1D
Address is a hit in cpu0_L1D
Tag check for address 1097924, I am cpu0_L1D
Address is a hit in cpu0_L1D
Tag check for address 54514570, I am cpu0_DTLB
Address is a hit in cpu0_DTLB
Tag check for address 1098634, I am cpu0_L1D
Address is a hit in cpu0_L1D
Tag check for address 140726619485032, I am cpu0_DTLB
Address is a hit in cpu0_DTLB
Tag check for address 1135464, I am cpu0_L1D
Tag check for address 1135456, I am cpu0_L1D
Tag check for address 1135464, I am cpu0_L2C
Tag check for address 1135464, I am LLC
Tag check for address 140726619485016, I am cpu0_DTLB
Address is a hit in cpu0_DTLB
Tag check for address 54514569, I am cpu0_DTLB
Address is a hit in cpu0_DTLB
Tag check for address 1135448, I am cpu0_L1D
Tag check for address 1098633, I am cpu0_L1D
Address is a hit in cpu0_L1D
Tag check for address 140726619485008, I am cpu0_DTLB
Address is a hit in cpu0_DTLB
Tag check for address 5696920, I am cpu0_DTLB
Address is a hit in cpu0_DTLB
Tag check for address 1135440, I am cpu0_L1D
Tag check for address 1109400, I am cpu0_L1D
Address is a hit in cpu0_L1D
Tag check for address 8216672, I am cpu0_DTLB
Address is a hit in cpu0_DTLB
Tag check for address 140726619485135, I am cpu0_DTLB
Address is a hit in cpu0_DTLB
Tag check for address 1118304, I am cpu0_L1D
Address is a hit in cpu0_L1D
Tag check for address 1135567, I am cpu0_L1D
Address is a hit in cpu0_L1D
Tag check for address 53912456, I am cpu0_DTLB
Address is a hit in cpu0_DTLB
Tag check for address 54514572, I am cpu0_DTLB
Address is a hit in cpu0_DTLB
Tag check for address 1102728, I am cpu0_L1D
Tag check for address 1098636, I am cpu0_L1D
Address is a hit in cpu0_L1D
Tag check for address 1102728, I am cpu0_L2C
Tag check for address 1102728, I am LLC
Tag check for address 53912464, I am cpu0_DTLB
Address is a hit in cpu0_DTLB
Tag check for address 8216088, I am cpu0_DTLB
Address is a hit in cpu0_DTLB
Tag check for address 1102736, I am cpu0_L1D
Tag check for address 1130008, I am cpu0_L1D
Address is a hit in cpu0_L1D
Tag check for address 8215840, I am cpu0_DTLB
Address is a hit in cpu0_DTLB
Tag check for address 8217360, I am cpu0_DTLB
Address is a hit in cpu0_DTLB
Tag check for address 1129760, I am cpu0_L1D
Address is a hit in cpu0_L1D
Tag check for address 1118992, I am cpu0_L1D
Address is a hit in cpu0_L1D
Tag check for address 54514577, I am cpu0_DTLB
Address is a hit in cpu0_DTLB
Tag check for address 1098641, I am cpu0_L1D
Address is a hit in cpu0_L1D
Tag check for address 53912420, I am cpu0_DTLB
Address is a hit in cpu0_DTLB
Tag check for address 54514578, I am cpu0_DTLB
Address is a hit in cpu0_DTLB
Tag check for address 1102692, I am cpu0_L1D
Address is a hit in cpu0_L1D
Tag check for address 1098642, I am cpu0_L1D
Address is a hit in cpu0_L1D
Tag check for address 53912428, I am cpu0_DTLB
Address is a hit in cpu0_DTLB
Tag check for address 1102700, I am cpu0_L1D
Address is a hit in cpu0_L1D
Tag check for address 1102688, I am cpu0_L1D
Address is a hit in cpu0_L1D
Tag check for address 53912440, I am cpu0_DTLB
Address is a hit in cpu0_DTLB
Tag check for address 1102712, I am cpu0_L1D
Address is a hit in cpu0_L1D
Tag check for address 53912448, I am cpu0_DTLB
Address is a hit in cpu0_DTLB
Tag check for address 1102720, I am cpu0_L1D
Address is a hit in cpu0_L1D
Tag check for address 1102704, I am cpu0_L1D
Address is a hit in cpu0_L1D
Tag check for address 54514582, I am cpu0_DTLB
Address is a hit in cpu0_DTLB
Tag check for address 1098646, I am cpu0_L1D
Address is a hit in cpu0_L1D
Tag check for address 53912424, I am cpu0_DTLB
Address is a hit in cpu0_DTLB
Tag check for address 140726619485128, I am cpu0_DTLB
Address is a hit in cpu0_DTLB
Tag check for address 1102696, I am cpu0_L1D
Address is a hit in cpu0_L1D
Tag check for address 1135560, I am cpu0_L1D
Address is a hit in cpu0_L1D
Tag check for address 140726619485104, I am cpu0_DTLB
Address is a hit in cpu0_DTLB
Tag check for address 5696920, I am cpu0_DTLB
Address is a hit in cpu0_DTLB
Tag check for address 1135536, I am cpu0_L1D
Address is a hit in cpu0_L1D
Tag check for address 1109400, I am cpu0_L1D
Address is a hit in cpu0_L1D
Tag check for address 8216672, I am cpu0_DTLB
Address is a hit in cpu0_DTLB
Tag check for address 140726619485135, I am cpu0_DTLB
Address is a hit in cpu0_DTLB
Tag check for address 1118304, I am cpu0_L1D
Address is a hit in cpu0_L1D
Tag check for address 1135567, I am cpu0_L1D
Address is a hit in cpu0_L1D
Tag check for address 54514580, I am cpu0_DTLB
Address is a hit in cpu0_DTLB
Tag check for address 1098644, I am cpu0_L1D
Address is a hit in cpu0_L1D
Tag check for address 140726619485220, I am cpu0_DTLB
Address is a hit in cpu0_DTLB
Tag check for address 1135652, I am cpu0_L1D
Address is a hit in cpu0_L1D
Tag check for address 1135560, I am cpu0_L1D
Address is a hit in cpu0_L1D
Tag check for address 140726619485128, I am cpu0_DTLB
Address is a hit in cpu0_DTLB
Tag check for address 8216088, I am cpu0_DTLB
Address is a hit in cpu0_DTLB
Tag check for address 1135560, I am cpu0_L1D
Address is a hit in cpu0_L1D
Tag check for address 1130008, I am cpu0_L1D
Address is a hit in cpu0_L1D
Tag check for address 53912424, I am cpu0_DTLB
Address is a hit in cpu0_DTLB
Tag check for address 1102696, I am cpu0_L1D
Address is a hit in cpu0_L1D
Tag check for address 8215840, I am cpu0_DTLB
Address is a hit in cpu0_DTLB
Tag check for address 53912428, I am cpu0_DTLB
Address is a hit in cpu0_DTLB
Tag check for address 1129760, I am cpu0_L1D
Address is a hit in cpu0_L1D
Tag check for address 1102700, I am cpu0_L1D
Address is a hit in cpu0_L1D
Tag check for address 53912416, I am cpu0_DTLB
Address is a hit in cpu0_DTLB
Tag check for address 54514589, I am cpu0_DTLB
Address is a hit in cpu0_DTLB
Tag check for address 1102688, I am cpu0_L1D
Address is a hit in cpu0_L1D
Tag check for address 1098653, I am cpu0_L1D
Address is a hit in cpu0_L1D
Tag check for address 8217360, I am cpu0_DTLB
Address is a hit in cpu0_DTLB
Tag check for address 1118992, I am cpu0_L1D
Address is a hit in cpu0_L1D
Tag check for address 54513860, I am cpu0_DTLB
Address is a hit in cpu0_DTLB
Tag check for address 1097924, I am cpu0_L1D
Address is a hit in cpu0_L1D
Tag check for address 1098654, I am cpu0_L1D
Address is a hit in cpu0_L1D
Tag check for address 53912416, I am cpu0_DTLB
Address is a hit in cpu0_DTLB
Tag check for address 1102688, I am cpu0_L1D
Address is a hit in cpu0_L1D
Tag check for address 53912440, I am cpu0_DTLB
Address is a hit in cpu0_DTLB
Tag check for address 1102712, I am cpu0_L1D
Address is a hit in cpu0_L1D
Tag check for address 1102720, I am cpu0_L1D
Address is a hit in cpu0_L1D
Tag check for address 54514594, I am cpu0_DTLB
Address is a hit in cpu0_DTLB
Tag check for address 1098658, I am cpu0_L1D
Address is a hit in cpu0_L1D
Tag check for address 53912432, I am cpu0_DTLB
Address is a hit in cpu0_DTLB
Tag check for address 54514593, I am cpu0_DTLB
Address is a hit in cpu0_DTLB
Tag check for address 1102704, I am cpu0_L1D
Address is a hit in cpu0_L1D
Tag check for address 1098657, I am cpu0_L1D
Address is a hit in cpu0_L1D
Tag check for address 5696920, I am cpu0_DTLB
Address is a hit in cpu0_DTLB
Tag check for address 1109400, I am cpu0_L1D
Address is a hit in cpu0_L1D
Tag check for address 140726619485104, I am cpu0_DTLB
Address is a hit in cpu0_DTLB
Tag check for address 8216672, I am cpu0_DTLB
Address is a hit in cpu0_DTLB
Tag check for address 1135536, I am cpu0_L1D
Address is a hit in cpu0_L1D
Tag check for address 1118304, I am cpu0_L1D
Address is a hit in cpu0_L1D
Tag check for address 140726619485104, I am cpu0_DTLB
Address is a hit in cpu0_DTLB
Tag check for address 1135536, I am cpu0_L1D
Address is a hit in cpu0_L1D
Tag check for address 1135567, I am cpu0_L1D
Address is a hit in cpu0_L1D
Tag check for address 54514592, I am cpu0_DTLB
Address is a hit in cpu0_DTLB
Tag check for address 1098656, I am cpu0_L1D
Address is a hit in cpu0_L1D
Tag check for address 140726619485128, I am cpu0_DTLB
Address is a hit in cpu0_DTLB
Tag check for address 1135560, I am cpu0_L1D
Address is a hit in cpu0_L1D
Tag check for address 140726619485220, I am cpu0_DTLB
Address is a hit in cpu0_DTLB
Tag check for address 1135652, I am cpu0_L1D
Address is a hit in cpu0_L1D
Tag check for address 1135560, I am cpu0_L1D
Address is a hit in cpu0_L1D
Tag check for address 8216088, I am cpu0_DTLB
Address is a hit in cpu0_DTLB
Tag check for address 53912424, I am cpu0_DTLB
Address is a hit in cpu0_DTLB
Tag check for address 1130008, I am cpu0_L1D
Address is a hit in cpu0_L1D
Tag check for address 1102696, I am cpu0_L1D
Address is a hit in cpu0_L1D
Tag check for address 8215840, I am cpu0_DTLB
Address is a hit in cpu0_DTLB
Tag check for address 53912416, I am cpu0_DTLB
Address is a hit in cpu0_DTLB
Tag check for address 4718224, I am cpu0_ITLB
Address is a hit in cpu0_ITLB
Tag check for address 1129760, I am cpu0_L1D
Address is a hit in cpu0_L1D
Tag check for address 1102688, I am cpu0_L1D
Address is a hit in cpu0_L1D
Tag check for address 1080976, I am cpu0_L1I
Address is a hit in cpu0_L1I
Tag check for address 1079136, I am cpu0_L1I
Address is a hit in cpu0_L1I
Tag check for address 53912416, I am cpu0_DTLB
Address is a hit in cpu0_DTLB
Tag check for address 54514601, I am cpu0_DTLB
Address is a hit in cpu0_DTLB
Tag check for address 1102688, I am cpu0_L1D
Address is a hit in cpu0_L1D
Tag check for address 1098665, I am cpu0_L1D
Address is a hit in cpu0_L1D
Tag check for address 53912420, I am cpu0_DTLB
Address is a hit in cpu0_DTLB
Tag check for address 8217360, I am cpu0_DTLB
Address is a hit in cpu0_DTLB
Tag check for address 4716401, I am cpu0_ITLB
Address is a hit in cpu0_ITLB
Tag check for address 4724244, I am cpu0_ITLB
Address is a hit in cpu0_ITLB
Tag check for address 1102692, I am cpu0_L1D
Address is a hit in cpu0_L1D
Tag check for address 1118992, I am cpu0_L1D
Address is a hit in cpu0_L1D
Tag check for address 1079153, I am cpu0_L1I
Address is a hit in cpu0_L1I
Tag check for address 1086996, I am cpu0_L1I
Tag check for address 1086996, I am cpu0_L2C
Tag check for address 1086996, I am LLC
Tag check for address 4724284, I am cpu0_ITLB
Address is a hit in cpu0_ITLB
Tag check for address 4718017, I am cpu0_ITLB
Address is a hit in cpu0_ITLB
Tag check for address 1087036, I am cpu0_L1I
Tag check for address 1080769, I am cpu0_L1I
Tag check for address 1080769, I am cpu0_L2C
Tag check for address 1080769, I am LLC
Tag check for address 54513860, I am cpu0_DTLB
Address is a hit in cpu0_DTLB
Tag check for address 140726619485448, I am cpu0_DTLB
Address is a hit in cpu0_DTLB
Tag check for address 1097924, I am cpu0_L1D
Address is a hit in cpu0_L1D
Tag check for address 1135880, I am cpu0_L1D
Address is a hit in cpu0_L1D
Tag check for address 140726619485464, I am cpu0_DTLB
Address is a hit in cpu0_DTLB
Tag check for address 1135896, I am cpu0_L1D
Address is a hit in cpu0_L1D
Tag check for address 140726619485480, I am cpu0_DTLB
Address is a hit in cpu0_DTLB
Tag check for address 1135912, I am cpu0_L1D
Address is a hit in cpu0_L1D
Tag check for address 140726619485496, I am cpu0_DTLB
Address is a hit in cpu0_DTLB
Tag check for address 1135928, I am cpu0_L1D
Address is a hit in cpu0_L1D
Tag check for address 54514545, I am cpu0_DTLB
Address is a hit in cpu0_DTLB
Tag check for address 140726619485588, I am cpu0_DTLB
Address is a hit in cpu0_DTLB
Tag check for address 1098609, I am cpu0_L1D
Address is a hit in cpu0_L1D
Tag check for address 1136020, I am cpu0_L1D
Address is a hit in cpu0_L1D
Tag check for address 53912432, I am cpu0_DTLB
Address is a hit in cpu0_DTLB
Tag check for address 140726619485584, I am cpu0_DTLB
Address is a hit in cpu0_DTLB
Tag check for address 1102704, I am cpu0_L1D
Address is a hit in cpu0_L1D
Tag check for address 1136016, I am cpu0_L1D
Address is a hit in cpu0_L1D
Tag check for address 140726619485104, I am cpu0_DTLB
Address is a hit in cpu0_DTLB
Tag check for address 54514548, I am cpu0_DTLB
Address is a hit in cpu0_DTLB
Tag check for address 1135536, I am cpu0_L1D
Address is a hit in cpu0_L1D
Tag check for address 1098612, I am cpu0_L1D
Address is a hit in cpu0_L1D
Tag check for address 140726619485104, I am cpu0_DTLB
Address is a hit in cpu0_DTLB
Tag check for address 54514610, I am cpu0_DTLB
Address is a hit in cpu0_DTLB
Tag check for address 1135536, I am cpu0_L1D
Address is a hit in cpu0_L1D
Tag check for address 1098674, I am cpu0_L1D
Address is a hit in cpu0_L1D
Tag check for address 54514609, I am cpu0_DTLB
Address is a hit in cpu0_DTLB
Tag check for address 1098673, I am cpu0_L1D
Address is a hit in cpu0_L1D
Tag check for address 5697064, I am cpu0_DTLB
Address is a hit in cpu0_DTLB
Tag check for address 54514608, I am cpu0_DTLB
Address is a hit in cpu0_DTLB
Tag check for address 1109544, I am cpu0_L1D
Address is a hit in cpu0_L1D
Tag check for address 1098672, I am cpu0_L1D
Address is a hit in cpu0_L1D
Tag check for address 8215360, I am cpu0_DTLB
Address is a hit in cpu0_DTLB
Tag check for address 1129280, I am cpu0_L1D
Address is a hit in cpu0_L1D
Tag check for address 140726619485220, I am cpu0_DTLB
Address is a hit in cpu0_DTLB
Tag check for address 8215224, I am cpu0_DTLB
Address is a hit in cpu0_DTLB
Tag check for address 1135652, I am cpu0_L1D
Address is a hit in cpu0_L1D
Tag check for address 1129144, I am cpu0_L1D
Address is a hit in cpu0_L1D
Tag check for address 8215360, I am cpu0_DTLB
Address is a hit in cpu0_DTLB
Tag check for address 1129280, I am cpu0_L1D
Address is a hit in cpu0_L1D
Tag check for address 120755786, I am cpu0_DTLB
Address is a hit in cpu0_DTLB
Tag check for address 1152586, I am cpu0_L1D
Address is a hit in cpu0_L1D
Tag check for address 54514618, I am cpu0_DTLB
Address is a hit in cpu0_DTLB
Tag check for address 1098682, I am cpu0_L1D
Address is a hit in cpu0_L1D
Tag check for address 54514617, I am cpu0_DTLB
Address is a hit in cpu0_DTLB
Tag check for address 1098681, I am cpu0_L1D
Address is a hit in cpu0_L1D
Tag check for address 5696904, I am cpu0_DTLB
Address is a hit in cpu0_DTLB
Tag check for address 1109384, I am cpu0_L1D
Address is a hit in cpu0_L1D
Tag check for address 54514629, I am cpu0_DTLB
Address is a hit in cpu0_DTLB
Tag check for address 8217360, I am cpu0_DTLB
Address is a hit in cpu0_DTLB
Tag check for address 1098693, I am cpu0_L1D
Tag check for address 1118992, I am cpu0_L1D
Address is a hit in cpu0_L1D
Tag check for address 1098693, I am cpu0_L2C
Tag check for address 1098693, I am LLC
Tag check for address 8215840, I am cpu0_DTLB
Address is a hit in cpu0_DTLB
Tag check for address 1129760, I am cpu0_L1D
Address is a hit in cpu0_L1D
Tag check for address 54513860, I am cpu0_DTLB
Address is a hit in cpu0_DTLB
Tag check for address 8218484, I am cpu0_DTLB
Address is a hit in cpu0_DTLB
Tag check for address 1097924, I am cpu0_L1D
Address is a hit in cpu0_L1D
Tag check for address 1120116, I am cpu0_L1D
Address is a hit in cpu0_L1D
Tag check for address 53912432, I am cpu0_DTLB
Address is a hit in cpu0_DTLB
Tag check for address 8216088, I am cpu0_DTLB
Address is a hit in cpu0_DTLB
Tag check for address 1102704, I am cpu0_L1D
Address is a hit in cpu0_L1D
Tag check for address 1130008, I am cpu0_L1D
Address is a hit in cpu0_L1D
Tag check for address 8216088, I am cpu0_DTLB
Address is a hit in cpu0_DTLB
Tag check for address 1130008, I am cpu0_L1D
Address is a hit in cpu0_L1D
Tag check for address 54514622, I am cpu0_DTLB
Address is a hit in cpu0_DTLB
Tag check for address 1098686, I am cpu0_L1D
Address is a hit in cpu0_L1D
Tag check for address 140726619485104, I am cpu0_DTLB
Address is a hit in cpu0_DTLB
Tag check for address 54514621, I am cpu0_DTLB
Address is a hit in cpu0_DTLB
Tag check for address 1135536, I am cpu0_L1D
Address is a hit in cpu0_L1D
Tag check for address 1098685, I am cpu0_L1D
Address is a hit in cpu0_L1D
Tag check for address 140726619485104, I am cpu0_DTLB
Address is a hit in cpu0_DTLB
Tag check for address 1135536, I am cpu0_L1D
Address is a hit in cpu0_L1D
Tag check for address 1135652, I am cpu0_L1D
Address is a hit in cpu0_L1D
Tag check for address 5696920, I am cpu0_DTLB
Address is a hit in cpu0_DTLB
Tag check for address 8216672, I am cpu0_DTLB
Address is a hit in cpu0_DTLB
Tag check for address 1109400, I am cpu0_L1D
Address is a hit in cpu0_L1D
Tag check for address 1118304, I am cpu0_L1D
Address is a hit in cpu0_L1D
Tag check for address 54514620, I am cpu0_DTLB
Address is a hit in cpu0_DTLB
Tag check for address 1098684, I am cpu0_L1D
Address is a hit in cpu0_L1D
Tag check for address 1098688, I am cpu0_L1D
Address is a hit in cpu0_L1D
Tag check for address 8216088, I am cpu0_DTLB
Address is a hit in cpu0_DTLB
Tag check for address 1130008, I am cpu0_L1D
Address is a hit in cpu0_L1D
Tag check for address 54513860, I am cpu0_DTLB
Address is a hit in cpu0_DTLB
Tag check for address 8217360, I am cpu0_DTLB
Address is a hit in cpu0_DTLB
Tag check for address 1097924, I am cpu0_L1D
Address is a hit in cpu0_L1D
Tag check for address 1118992, I am cpu0_L1D
Address is a hit in cpu0_L1D
Tag check for address 54514629, I am cpu0_DTLB
Address is a hit in cpu0_DTLB
Tag check for address 1098693, I am cpu0_L1D
Address is a hit in cpu0_L1D
Tag check for address 140726619485128, I am cpu0_DTLB
Address is a hit in cpu0_DTLB
Tag check for address 1135560, I am cpu0_L1D
Address is a hit in cpu0_L1D
Tag check for address 54514630, I am cpu0_DTLB
Address is a hit in cpu0_DTLB
Tag check for address 1098694, I am cpu0_L1D
Address is a hit in cpu0_L1D
Tag check for address 140726619485588, I am cpu0_DTLB
Address is a hit in cpu0_DTLB
Tag check for address 1136020, I am cpu0_L1D
Address is a hit in cpu0_L1D
Tag check for address 140726619485584, I am cpu0_DTLB
Address is a hit in cpu0_DTLB
Tag check for address 1136016, I am cpu0_L1D
Address is a hit in cpu0_L1D
Tag check for address 54514634, I am cpu0_DTLB
Address is a hit in cpu0_DTLB
Tag check for address 1098698, I am cpu0_L1D
Address is a hit in cpu0_L1D
Tag check for address 54514633, I am cpu0_DTLB
Address is a hit in cpu0_DTLB
Tag check for address 1098697, I am cpu0_L1D
Address is a hit in cpu0_L1D
Tag check for address 5696920, I am cpu0_DTLB
Address is a hit in cpu0_DTLB
Tag check for address 1109400, I am cpu0_L1D
Address is a hit in cpu0_L1D
Tag check for address 140726619485568, I am cpu0_DTLB
Address is a hit in cpu0_DTLB
Tag check for address 8216672, I am cpu0_DTLB
Address is a hit in cpu0_DTLB
Tag check for address 1136000, I am cpu0_L1D
Address is a hit in cpu0_L1D
Tag check for address 1118304, I am cpu0_L1D
Address is a hit in cpu0_L1D
Tag check for address 140726619485568, I am cpu0_DTLB
Address is a hit in cpu0_DTLB
Tag check for address 54514632, I am cpu0_DTLB
Address is a hit in cpu0_DTLB
Tag check for address 1136000, I am cpu0_L1D
Address is a hit in cpu0_L1D
Tag check for address 1098696, I am cpu0_L1D
Address is a hit in cpu0_L1D
Tag check for address 54514636, I am cpu0_DTLB
Address is a hit in cpu0_DTLB
Tag check for address 1098700, I am cpu0_L1D
Address is a hit in cpu0_L1D
Tag check for address 8216088, I am cpu0_DTLB
Address is a hit in cpu0_DTLB
Tag check for address 1130008, I am cpu0_L1D
Address is a hit in cpu0_L1D
Tag check for address 8217360, I am cpu0_DTLB
Address is a hit in cpu0_DTLB
Tag check for address 1118992, I am cpu0_L1D
Address is a hit in cpu0_L1D
Tag check for address 8215152, I am cpu0_DTLB
Address is a hit in cpu0_DTLB
Tag check for address 1129072, I am cpu0_L1D
Address is a hit in cpu0_L1D
Tag check for address 140726619485496, I am cpu0_DTLB
Address is a hit in cpu0_DTLB
Tag check for address 54514641, I am cpu0_DTLB
Address is a hit in cpu0_DTLB
Tag check for address 1135928, I am cpu0_L1D
Address is a hit in cpu0_L1D
Tag check for address 1098705, I am cpu0_L1D
Address is a hit in cpu0_L1D
Tag check for address 140726619485488, I am cpu0_DTLB
Address is a hit in cpu0_DTLB
Tag check for address 1135920, I am cpu0_L1D
Address is a hit in cpu0_L1D
Tag check for address 1135912, I am cpu0_L1D
Address is a hit in cpu0_L1D
Tag check for address 140726619485472, I am cpu0_DTLB
Address is a hit in cpu0_DTLB
Tag check for address 1135904, I am cpu0_L1D
Address is a hit in cpu0_L1D
Tag check for address 140726619485464, I am cpu0_DTLB
Address is a hit in cpu0_DTLB
Tag check for address 1135896, I am cpu0_L1D
Address is a hit in cpu0_L1D
Tag check for address 1135888, I am cpu0_L1D
Address is a hit in cpu0_L1D
Tag check for address 140726619485448, I am cpu0_DTLB
Address is a hit in cpu0_DTLB
Tag check for address 1135880, I am cpu0_L1D
Address is a hit in cpu0_L1D
Tag check for address 1135567, I am cpu0_L1D
Address is a hit in cpu0_L1D
Tag check for address 140726619485220, I am cpu0_DTLB
Address is a hit in cpu0_DTLB
Tag check for address 1135652, I am cpu0_L1D
Address is a hit in cpu0_L1D
Tag check for address 1135548, I am cpu0_L1D
Address is a hit in cpu0_L1D
Tag check for address 140726619485120, I am cpu0_DTLB
Address is a hit in cpu0_DTLB
Tag check for address 1135552, I am cpu0_L1D
Address is a hit in cpu0_L1D
Tag check for address 1135904, I am cpu0_L1D
Address is a hit in cpu0_L1D
Tag check for address 140726619485124, I am cpu0_DTLB
Address is a hit in cpu0_DTLB
Tag check for address 54514609, I am cpu0_DTLB
Address is a hit in cpu0_DTLB
Tag check for address 1135556, I am cpu0_L1D
Address is a hit in cpu0_L1D
Tag check for address 1098673, I am cpu0_L1D
Address is a hit in cpu0_L1D
Tag check for address 140726619485128, I am cpu0_DTLB
Address is a hit in cpu0_DTLB
Tag check for address 1135560, I am cpu0_L1D
Address is a hit in cpu0_L1D
Tag check for address 1135536, I am cpu0_L1D
Address is a hit in cpu0_L1D
Tag check for address 140726619485104, I am cpu0_DTLB
Address is a hit in cpu0_DTLB
Tag check for address 1135536, I am cpu0_L1D
Address is a hit in cpu0_L1D
Tag check for address 1136020, I am cpu0_L1D
Address is a hit in cpu0_L1D
Tag check for address 140726619485228, I am cpu0_DTLB
Address is a hit in cpu0_DTLB
Tag check for address 54514612, I am cpu0_DTLB
Address is a hit in cpu0_DTLB
Tag check for address 1135660, I am cpu0_L1D
Address is a hit in cpu0_L1D
Tag check for address 1098676, I am cpu0_L1D
Address is a hit in cpu0_L1D
Tag check for address 54514650, I am cpu0_DTLB
Address is a hit in cpu0_DTLB
Tag check for address 1098714, I am cpu0_L1D
Address is a hit in cpu0_L1D
Tag check for address 140726619485032, I am cpu0_DTLB
Address is a hit in cpu0_DTLB
Tag check for address 54514649, I am cpu0_DTLB
Address is a hit in cpu0_DTLB
Tag check for address 1135464, I am cpu0_L1D
Address is a hit in cpu0_L1D
Tag check for address 1098713, I am cpu0_L1D
Address is a hit in cpu0_L1D
Tag check for address 140726619485024, I am cpu0_DTLB
Address is a hit in cpu0_DTLB
Tag check for address 1135456, I am cpu0_L1D
Address is a hit in cpu0_L1D
Tag check for address 1135448, I am cpu0_L1D
Address is a hit in cpu0_L1D
Tag check for address 140726619485008, I am cpu0_DTLB
Address is a hit in cpu0_DTLB
Tag check for address 5697064, I am cpu0_DTLB
Address is a hit in cpu0_DTLB
Tag check for address 1135440, I am cpu0_L1D
Address is a hit in cpu0_L1D
Tag check for address 1109544, I am cpu0_L1D
Address is a hit in cpu0_L1D
Tag check for address 54514648, I am cpu0_DTLB
Address is a hit in cpu0_DTLB
Tag check for address 8215360, I am cpu0_DTLB
Address is a hit in cpu0_DTLB
Tag check for address 1098712, I am cpu0_L1D
Address is a hit in cpu0_L1D
Tag check for address 1129280, I am cpu0_L1D
Address is a hit in cpu0_L1D
Tag check for address 53912512, I am cpu0_DTLB
Address is a hit in cpu0_DTLB
Tag check for address 8215224, I am cpu0_DTLB
Address is a hit in cpu0_DTLB
Tag check for address 1102784, I am cpu0_L1D
Tag check for address 1129144, I am cpu0_L1D
Address is a hit in cpu0_L1D
Tag check for address 1102784, I am cpu0_L2C
Tag check for address 1102784, I am LLC
Tag check for address 53912520, I am cpu0_DTLB
Address is a hit in cpu0_DTLB
Tag check for address 1102792, I am cpu0_L1D
Tag check for address 8215840, I am cpu0_DTLB
Address is a hit in cpu0_DTLB
Tag check for address 1129760, I am cpu0_L1D
Address is a hit in cpu0_L1D
Tag check for address 8215360, I am cpu0_DTLB
Address is a hit in cpu0_DTLB
Tag check for address 1129280, I am cpu0_L1D
Address is a hit in cpu0_L1D
Tag check for address 120755784, I am cpu0_DTLB
Address is a hit in cpu0_DTLB
Tag check for address 1152584, I am cpu0_L1D
Address is a hit in cpu0_L1D
Tag check for address 54514658, I am cpu0_DTLB
Address is a hit in cpu0_DTLB
Tag check for address 1098722, I am cpu0_L1D
Address is a hit in cpu0_L1D
Tag check for address 54514657, I am cpu0_DTLB
Address is a hit in cpu0_DTLB
Tag check for address 1098721, I am cpu0_L1D
Address is a hit in cpu0_L1D
Tag check for address 5696920, I am cpu0_DTLB
Address is a hit in cpu0_DTLB
Tag check for address 8216672, I am cpu0_DTLB
Address is a hit in cpu0_DTLB
Tag check for address 1109400, I am cpu0_L1D
Address is a hit in cpu0_L1D
Tag check for address 1118304, I am cpu0_L1D
Address is a hit in cpu0_L1D
Tag check for address 54514656, I am cpu0_DTLB
Address is a hit in cpu0_DTLB
Tag check for address 1098720, I am cpu0_L1D
Address is a hit in cpu0_L1D
Tag check for address 53912476, I am cpu0_DTLB
Address is a hit in cpu0_DTLB
Tag check for address 54514660, I am cpu0_DTLB
Address is a hit in cpu0_DTLB
Tag check for address 1102748, I am cpu0_L1D
Address is a hit in cpu0_L1D
Tag check for address 1098724, I am cpu0_L1D
Address is a hit in cpu0_L1D
Tag check for address 53912484, I am cpu0_DTLB
Address is a hit in cpu0_DTLB
Tag check for address 1102756, I am cpu0_L1D
Address is a hit in cpu0_L1D
Tag check for address 1102744, I am cpu0_L1D
Address is a hit in cpu0_L1D
Tag check for address 53912496, I am cpu0_DTLB
Address is a hit in cpu0_DTLB
Tag check for address 1102768, I am cpu0_L1D
Address is a hit in cpu0_L1D
Tag check for address 1102776, I am cpu0_L1D
Address is a hit in cpu0_L1D
Tag check for address 53912488, I am cpu0_DTLB
Address is a hit in cpu0_DTLB
Tag check for address 1102760, I am cpu0_L1D
Address is a hit in cpu0_L1D
Tag check for address 1102752, I am cpu0_L1D
Address is a hit in cpu0_L1D
Tag check for address 140726619485128, I am cpu0_DTLB
Address is a hit in cpu0_DTLB
Tag check for address 1135560, I am cpu0_L1D
Address is a hit in cpu0_L1D
Tag check for address 1135536, I am cpu0_L1D
Address is a hit in cpu0_L1D
Tag check for address 140726619485104, I am cpu0_DTLB
Address is a hit in cpu0_DTLB
Tag check for address 54514649, I am cpu0_DTLB
Address is a hit in cpu0_DTLB
Tag check for address 1135536, I am cpu0_L1D
Address is a hit in cpu0_L1D
Tag check for address 1098713, I am cpu0_L1D
Address is a hit in cpu0_L1D
Tag check for address 140726619485220, I am cpu0_DTLB
Address is a hit in cpu0_DTLB
Tag check for address 1135652, I am cpu0_L1D
Address is a hit in cpu0_L1D
Tag check for address 54514652, I am cpu0_DTLB
Address is a hit in cpu0_DTLB
Tag check for address 1098716, I am cpu0_L1D
Address is a hit in cpu0_L1D
Tag check for address 54513860, I am cpu0_DTLB
Address is a hit in cpu0_DTLB
Tag check for address 1097924, I am cpu0_L1D
Address is a hit in cpu0_L1D
Tag check for address 54514678, I am cpu0_DTLB
Address is a hit in cpu0_DTLB
Tag check for address 1098742, I am cpu0_L1D
Address is a hit in cpu0_L1D
Tag check for address 54514677, I am cpu0_DTLB
Address is a hit in cpu0_DTLB
Tag check for address 1098741, I am cpu0_L1D
Address is a hit in cpu0_L1D
Tag check for address 5696920, I am cpu0_DTLB
Address is a hit in cpu0_DTLB
Tag check for address 8216672, I am cpu0_DTLB
Address is a hit in cpu0_DTLB
Tag check for address 1109400, I am cpu0_L1D
Address is a hit in cpu0_L1D
Tag check for address 1118304, I am cpu0_L1D
Address is a hit in cpu0_L1D
Tag check for address 140726619485599, I am cpu0_DTLB
Address is a hit in cpu0_DTLB
Tag check for address 54514676, I am cpu0_DTLB
Address is a hit in cpu0_DTLB
Tag check for address 1136031, I am cpu0_L1D
Address is a hit in cpu0_L1D
Tag check for address 1098740, I am cpu0_L1D
Address is a hit in cpu0_L1D
Tag check for address 54514680, I am cpu0_DTLB
Address is a hit in cpu0_DTLB
Tag check for address 4750608, I am cpu0_ITLB
Tag check for address 1098744, I am cpu0_L1D
Address is a hit in cpu0_L1D
Tag check for address 4750608, I am cpu0_STLB
Tag check for address 53912488, I am cpu0_DTLB
Address is a hit in cpu0_DTLB
Tag check for address 140726619485592, I am cpu0_DTLB
Address is a hit in cpu0_DTLB
Tag check for address 1102760, I am cpu0_L1D
Address is a hit in cpu0_L1D
Tag check for address 1136024, I am cpu0_L1D
Address is a hit in cpu0_L1D
Tag check for address 140726619485592, I am cpu0_DTLB
Address is a hit in cpu0_DTLB
Tag check for address 4750621, I am cpu0_ITLB
Tag check for address 1072400, I am cpu0_L1D
Tag check for address 1136024, I am cpu0_L1D
Address is a hit in cpu0_L1D
Tag check for address 1072400, I am cpu0_L2C
Tag check for address 1072400, I am LLC
Tag check for address 8216088, I am cpu0_DTLB
Address is a hit in cpu0_DTLB
Tag check for address 53912360, I am cpu0_DTLB
Address is a hit in cpu0_DTLB
Tag check for address 4750658, I am cpu0_ITLB
Tag check for address 1130008, I am cpu0_L1D
Address is a hit in cpu0_L1D
Tag check for address 1102632, I am cpu0_L1D
Address is a hit in cpu0_L1D
Tag check for address 140726619485104, I am cpu0_DTLB
Address is a hit in cpu0_DTLB
Tag check for address 8215840, I am cpu0_DTLB
Address is a hit in cpu0_DTLB
Tag check for address 4750720, I am cpu0_ITLB
Tag check for address 4751776, I am cpu0_ITLB
Address is a hit in cpu0_ITLB
Tag check for address 1135536, I am cpu0_L1D
Address is a hit in cpu0_L1D
Tag check for address 1129760, I am cpu0_L1D
Address is a hit in cpu0_L1D
Tag check for address 1143200, I am cpu0_L1I
Tag check for address 1143200, I am cpu0_L2C
Tag check for address 1143200, I am LLC
Tag check for address 140726619485104, I am cpu0_DTLB
Address is a hit in cpu0_DTLB
Tag check for address 53912372, I am cpu0_DTLB
Address is a hit in cpu0_DTLB
Tag check for address 4750640, I am cpu0_ITLB
Tag check for address 1135536, I am cpu0_L1D
Address is a hit in cpu0_L1D
Tag check for address 1102644, I am cpu0_L1D
Address is a hit in cpu0_L1D
Tag check for address 4750658, I am cpu0_ITLB
Tag check for address 4750720, I am cpu0_ITLB
Address is a hit in cpu0_ITLB
Tag check for address 4751776, I am cpu0_ITLB
Address is a hit in cpu0_ITLB
Tag check for address 1158528, I am cpu0_L1I
Tag check for address 1143200, I am cpu0_L1I
Address is a hit in cpu0_L1I
Tag check for address 1158528, I am cpu0_L2C
Tag check for address 1158528, I am LLC
Tag check for address 140726619485220, I am cpu0_DTLB
Address is a hit in cpu0_DTLB
Tag check for address 1135652, I am cpu0_L1D
Address is a hit in cpu0_L1D
Tag check for address 1158416, I am cpu0_L1I
Tag check for address 1158429, I am cpu0_L1I
Tag check for address 1158416, I am cpu0_L2C
Tag check for address 1158416, I am LLC
Tag check for address 1158466, I am cpu0_L1I
Tag check for address 1158528, I am cpu0_L1I
Tag check for address 1158466, I am cpu0_L2C
Tag check for address 1158466, I am LLC
Tag check for address 1158448, I am cpu0_L1I
Tag check for address 1158466, I am cpu0_L1I
Tag check for address 4750640, I am cpu0_ITLB
Address is a hit in cpu0_ITLB
Tag check for address 1158448, I am cpu0_L1I
Address is a hit in cpu0_L1I
Tag check for address 1158512, I am cpu0_L1I
Tag check for address 54513860, I am cpu0_DTLB
Address is a hit in cpu0_DTLB
Tag check for address 1097924, I am cpu0_L1D
Address is a hit in cpu0_L1D
Tag check for address 8215840, I am cpu0_DTLB
Address is a hit in cpu0_DTLB
Tag check for address 1129760, I am cpu0_L1D
Address is a hit in cpu0_L1D
Tag check for address 8216088, I am cpu0_DTLB
Address is a hit in cpu0_DTLB
Tag check for address 1130008, I am cpu0_L1D
Address is a hit in cpu0_L1D
Tag check for address 140726619485128, I am cpu0_DTLB
Address is a hit in cpu0_DTLB
Tag check for address 1135560, I am cpu0_L1D
Address is a hit in cpu0_L1D
Tag check for address 53912520, I am cpu0_DTLB
Address is a hit in cpu0_DTLB
Tag check for address 1102792, I am cpu0_L1D
Address is a hit in cpu0_L1D
Tag check for address 53912512, I am cpu0_DTLB
Address is a hit in cpu0_DTLB
Tag check for address 5697840, I am cpu0_DTLB
Tag check for address 1102784, I am cpu0_L1D
Address is a hit in cpu0_L1D
Tag check for address 5697840, I am cpu0_STLB
Tag check for address 140726619485588, I am cpu0_DTLB
Address is a hit in cpu0_DTLB
Tag check for address 8216088, I am cpu0_DTLB
Address is a hit in cpu0_DTLB
Tag check for address 1136020, I am cpu0_L1D
Address is a hit in cpu0_L1D
Tag check for address 1130008, I am cpu0_L1D
Address is a hit in cpu0_L1D
Tag check for address 140726619485584, I am cpu0_DTLB
Address is a hit in cpu0_DTLB
Tag check for address 1069360, I am cpu0_L1D
Tag check for address 1136016, I am cpu0_L1D
Address is a hit in cpu0_L1D
Tag check for address 1069360, I am cpu0_L2C
Tag check for address 1069360, I am LLC
Tag check for address 53912464, I am cpu0_DTLB
Address is a hit in cpu0_DTLB
Tag check for address 5697840, I am cpu0_DTLB
[...]
Address is a hit in cpu0_DTLB
Tag check for address 140726619485464, I am cpu0_DTLB
Address is a hit in cpu0_DTLB
Tag check for address 1135928, I am cpu0_L1D
Address is a hit in cpu0_L1D
Tag check for address 1135920, I am cpu0_L1D
Address is a hit in cpu0_L1D
Tag check for address 140726619485448, I am cpu0_DTLB
Address is a hit in cpu0_DTLB
Tag check for address 1135912, I am cpu0_L1D
Address is a hit in cpu0_L1D
Tag check for address 1135904, I am cpu0_L1D
Address is a hit in cpu0_L1D
Tag check for address 1135896, I am cpu0_L1D
Address is a hit in cpu0_L1D
Tag check for address 1135888, I am cpu0_L1D
Address is a hit in cpu0_L1D
Tag check for address 1135880, I am cpu0_L1D
Address is a hit in cpu0_L1D
Tag check for address 8216088, I am cpu0_DTLB
Address is a hit in cpu0_DTLB
Tag check for address 53912520, I am cpu0_DTLB
Address is a hit in cpu0_DTLB
Tag check for address 53912520, I am cpu0_DTLB
Address is a hit in cpu0_DTLB
Tag check for address 5697840, I am cpu0_DTLB
Address is a hit in cpu0_DTLB
Tag check for address 1130008, I am cpu0_L1D
Address is a hit in cpu0_L1D
Tag check for address 1102792, I am cpu0_L1D
Address is a hit in cpu0_L1D
Tag check for address 1102792, I am cpu0_L1D
Address is a hit in cpu0_L1D
Tag check for address 1159472, I am cpu0_L1D
Address is a hit in cpu0_L1D
Tag check for address 8216088, I am cpu0_DTLB
Address is a hit in cpu0_DTLB
Tag check for address 1102784, I am cpu0_L1D
Address is a hit in cpu0_L1D
Tag check for address 53912464, I am cpu0_DTLB
Address is a hit in cpu0_DTLB
Tag check for address 53912464, I am cpu0_DTLB
Address is a hit in cpu0_DTLB
Tag check for address 1130008, I am cpu0_L1D
Address is a hit in cpu0_L1D
Tag check for address 5697840, I am cpu0_DTLB
Address is a hit in cpu0_DTLB
Tag check for address 1102736, I am cpu0_L1D
Address is a hit in cpu0_L1D
Tag check for address 53912456, I am cpu0_DTLB
Address is a hit in cpu0_DTLB
Tag check for address 1102736, I am cpu0_L1D
Address is a hit in cpu0_L1D
Tag check for address 1159472, I am cpu0_L1D
Address is a hit in cpu0_L1D
Tag check for address 8215840, I am cpu0_DTLB
Address is a hit in cpu0_DTLB
Tag check for address 1102728, I am cpu0_L1D
Address is a hit in cpu0_L1D
Tag check for address 8215840, I am cpu0_DTLB
Address is a hit in cpu0_DTLB
Tag check for address 1129760, I am cpu0_L1D
Address is a hit in cpu0_L1D
Tag check for address 8215840, I am cpu0_DTLB
Address is a hit in cpu0_DTLB
Tag check for address 1129760, I am cpu0_L1D
Address is a hit in cpu0_L1D
Tag check for address 1129760, I am cpu0_L1D
Address is a hit in cpu0_L1D
Tag check for address 8215840, I am cpu0_DTLB
Address is a hit in cpu0_DTLB
Tag check for address 1129760, I am cpu0_L1D
Address is a hit in cpu0_L1D
Tag check for address 140726619485448, I am cpu0_DTLB
Address is a hit in cpu0_DTLB
Tag check for address 140726619485472, I am cpu0_DTLB
Address is a hit in cpu0_DTLB
Tag check for address 140726619485464, I am cpu0_DTLB
Address is a hit in cpu0_DTLB
Tag check for address 1135880, I am cpu0_L1D
Address is a hit in cpu0_L1D
Tag check for address 140726619485488, I am cpu0_DTLB
Address is a hit in cpu0_DTLB
Tag check for address 1135904, I am cpu0_L1D
Address is a hit in cpu0_L1D
Tag check for address 8217360, I am cpu0_DTLB
Address is a hit in cpu0_DTLB
Tag check for address 1135896, I am cpu0_L1D
Address is a hit in cpu0_L1D
Tag check for address 54513860, I am cpu0_DTLB
Address is a hit in cpu0_DTLB
Tag check for address 1135920, I am cpu0_L1D
Address is a hit in cpu0_L1D
Tag check for address 53912376, I am cpu0_DTLB
Address is a hit in cpu0_DTLB
Tag check for address 1118992, I am cpu0_L1D
Address is a hit in cpu0_L1D
Tag check for address 1097924, I am cpu0_L1D
Address is a hit in cpu0_L1D
Tag check for address 54514069, I am cpu0_DTLB
Address is a hit in cpu0_DTLB
Tag check for address 1102648, I am cpu0_L1D
Address is a hit in cpu0_L1D
Tag check for address 53912360, I am cpu0_DTLB
Address is a hit in cpu0_DTLB
Tag check for address 1098133, I am cpu0_L1D
Address is a hit in cpu0_L1D
Tag check for address 53912384, I am cpu0_DTLB
Address is a hit in cpu0_DTLB
Tag check for address 1098134, I am cpu0_L1D
Address is a hit in cpu0_L1D
Tag check for address 1102632, I am cpu0_L1D
Address is a hit in cpu0_L1D
Tag check for address 1102656, I am cpu0_L1D
Address is a hit in cpu0_L1D
Tag check for address 54514074, I am cpu0_DTLB
Address is a hit in cpu0_DTLB
Tag check for address 54514073, I am cpu0_DTLB
Address is a hit in cpu0_DTLB
Tag check for address 54513860, I am cpu0_DTLB
Address is a hit in cpu0_DTLB
Tag check for address 1098138, I am cpu0_L1D
Address is a hit in cpu0_L1D
Tag check for address 5696920, I am cpu0_DTLB
Address is a hit in cpu0_DTLB
Tag check for address 1098137, I am cpu0_L1D
Address is a hit in cpu0_L1D
Tag check for address 8216672, I am cpu0_DTLB
Address is a hit in cpu0_DTLB
Tag check for address 1097924, I am cpu0_L1D
Address is a hit in cpu0_L1D
Tag check for address 1109400, I am cpu0_L1D
Address is a hit in cpu0_L1D
Tag check for address 140726619485599, I am cpu0_DTLB
Address is a hit in cpu0_DTLB
Tag check for address 1118304, I am cpu0_L1D
Address is a hit in cpu0_L1D
Tag check for address 1136031, I am cpu0_L1D
Address is a hit in cpu0_L1D
Tag check for address 54514072, I am cpu0_DTLB
Address is a hit in cpu0_DTLB
Tag check for address 1098136, I am cpu0_L1D
Address is a hit in cpu0_L1D
Tag check for address 140726619485592, I am cpu0_DTLB
Address is a hit in cpu0_DTLB
Tag check for address 1098140, I am cpu0_L1D
Address is a hit in cpu0_L1D
Tag check for address 8216088, I am cpu0_DTLB
Address is a hit in cpu0_DTLB
Tag check for address 1136024, I am cpu0_L1D
Address is a hit in cpu0_L1D
Tag check for address 53912368, I am cpu0_DTLB
Address is a hit in cpu0_DTLB
Tag check for address 1136024, I am cpu0_L1D
Address is a hit in cpu0_L1D
Tag check for address 1130008, I am cpu0_L1D
Address is a hit in cpu0_L1D
Tag check for address 8215840, I am cpu0_DTLB
Address is a hit in cpu0_DTLB
Tag check for address 1102640, I am cpu0_L1D
Address is a hit in cpu0_L1D
Tag check for address 53912372, I am cpu0_DTLB
Address is a hit in cpu0_DTLB
Tag check for address 1102648, I am cpu0_L1D
Address is a hit in cpu0_L1D
Tag check for address 1129760, I am cpu0_L1D
Address is a hit in cpu0_L1D
Tag check for address 140726619485568, I am cpu0_DTLB
Address is a hit in cpu0_DTLB
Tag check for address 1102644, I am cpu0_L1D
Address is a hit in cpu0_L1D
Tag check for address 1136000, I am cpu0_L1D
Address is a hit in cpu0_L1D
Tag check for address 1136000, I am cpu0_L1D
Address is a hit in cpu0_L1D
Tag check for address 140726619485684, I am cpu0_DTLB
Address is a hit in cpu0_DTLB
Tag check for address 1136116, I am cpu0_L1D
Address is a hit in cpu0_L1D
Tag check for address 8217360, I am cpu0_DTLB
Address is a hit in cpu0_DTLB
Tag check for address 54513860, I am cpu0_DTLB
Address is a hit in cpu0_DTLB
Tag check for address 53912376, I am cpu0_DTLB
Address is a hit in cpu0_DTLB
Tag check for address 54514165, I am cpu0_DTLB
Address is a hit in cpu0_DTLB
Tag check for address 1118992, I am cpu0_L1D
Address is a hit in cpu0_L1D
Tag check for address 1097924, I am cpu0_L1D
Address is a hit in cpu0_L1D
Tag check for address 1102648, I am cpu0_L1D
Address is a hit in cpu0_L1D
Tag check for address 54514166, I am cpu0_DTLB
Address is a hit in cpu0_DTLB
Tag check for address 1098229, I am cpu0_L1D
Address is a hit in cpu0_L1D
Tag check for address 53912360, I am cpu0_DTLB
Address is a hit in cpu0_DTLB
Tag check for address 53912384, I am cpu0_DTLB
Address is a hit in cpu0_DTLB
Tag check for address 1098230, I am cpu0_L1D
Address is a hit in cpu0_L1D
Tag check for address 1102632, I am cpu0_L1D
Address is a hit in cpu0_L1D
Tag check for address 1102656, I am cpu0_L1D
Address is a hit in cpu0_L1D
Tag check for address 54514170, I am cpu0_DTLB
Address is a hit in cpu0_DTLB
Tag check for address 54513860, I am cpu0_DTLB
Address is a hit in cpu0_DTLB
Tag check for address 5696920, I am cpu0_DTLB
Address is a hit in cpu0_DTLB
Tag check for address 1098234, I am cpu0_L1D
Address is a hit in cpu0_L1D
Tag check for address 8216672, I am cpu0_DTLB
Address is a hit in cpu0_DTLB
Tag check for address 1097924, I am cpu0_L1D
Address is a hit in cpu0_L1D
Tag check for address 1098233, I am cpu0_L1D
Address is a hit in cpu0_L1D
Tag check for address 140726619485599, I am cpu0_DTLB
Address is a hit in cpu0_DTLB
Tag check for address 1109400, I am cpu0_L1D
Address is a hit in cpu0_L1D
Tag check for address 54514168, I am cpu0_DTLB
Address is a hit in cpu0_DTLB
Tag check for address 1118304, I am cpu0_L1D
Address is a hit in cpu0_L1D
Tag check for address 1136031, I am cpu0_L1D
Address is a hit in cpu0_L1D
Tag check for address 140726619485592, I am cpu0_DTLB
Address is a hit in cpu0_DTLB
Tag check for address 1098232, I am cpu0_L1D
Address is a hit in cpu0_L1D
Tag check for address 140726619485592, I am cpu0_DTLB
Address is a hit in cpu0_DTLB
Tag check for address 1098236, I am cpu0_L1D
Address is a hit in cpu0_L1D
Tag check for address 8216088, I am cpu0_DTLB
Address is a hit in cpu0_DTLB
Tag check for address 1136024, I am cpu0_L1D
Address is a hit in cpu0_L1D
Tag check for address 53912376, I am cpu0_DTLB
Address is a hit in cpu0_DTLB
Tag check for address 1136024, I am cpu0_L1D
Address is a hit in cpu0_L1D
Tag check for address 1130008, I am cpu0_L1D
Address is a hit in cpu0_L1D
Tag check for address 8215840, I am cpu0_DTLB
Address is a hit in cpu0_DTLB
Tag check for address 1102648, I am cpu0_L1D
Address is a hit in cpu0_L1D
Tag check for address 1102640, I am cpu0_L1D
Address is a hit in cpu0_L1D
Tag check for address 140726619485568, I am cpu0_DTLB
Address is a hit in cpu0_DTLB
Tag check for address 1129760, I am cpu0_L1D
Address is a hit in cpu0_L1D
Tag check for address 1102644, I am cpu0_L1D
Address is a hit in cpu0_L1D
Tag check for address 53912376, I am cpu0_DTLB
Address is a hit in cpu0_DTLB
Tag check for address 1136000, I am cpu0_L1D
Address is a hit in cpu0_L1D
Tag check for address 54514177, I am cpu0_DTLB
Address is a hit in cpu0_DTLB
Tag check for address 1136000, I am cpu0_L1D
Address is a hit in cpu0_L1D
Tag check for address 8217360, I am cpu0_DTLB
Address is a hit in cpu0_DTLB
Tag check for address 1102648, I am cpu0_L1D
Address is a hit in cpu0_L1D
Tag check for address 1098241, I am cpu0_L1D
Address is a hit in cpu0_L1D
Tag check for address 140726619485684, I am cpu0_DTLB
Address is a hit in cpu0_DTLB
Tag check for address 1118992, I am cpu0_L1D
Address is a hit in cpu0_L1D
Tag check for address 1097924, I am cpu0_L1D
Address is a hit in cpu0_L1D
Tag check for address 54514178, I am cpu0_DTLB
Address is a hit in cpu0_DTLB
Tag check for address 1136116, I am cpu0_L1D
Address is a hit in cpu0_L1D
Tag check for address 1098242, I am cpu0_L1D
Address is a hit in cpu0_L1D
Tag check for address 53912360, I am cpu0_DTLB
Address is a hit in cpu0_DTLB
Tag check for address 1102632, I am cpu0_L1D
Address is a hit in cpu0_L1D
Tag check for address 54514182, I am cpu0_DTLB
Address is a hit in cpu0_DTLB
Tag check for address 1102656, I am cpu0_L1D
Address is a hit in cpu0_L1D
Tag check for address 54514181, I am cpu0_DTLB
Address is a hit in cpu0_DTLB
Tag check for address 5696920, I am cpu0_DTLB
Address is a hit in cpu0_DTLB
Tag check for address 1098246, I am cpu0_L1D
Address is a hit in cpu0_L1D
Tag check for address 8216672, I am cpu0_DTLB
Address is a hit in cpu0_DTLB
Tag check for address 1098245, I am cpu0_L1D
Address is a hit in cpu0_L1D
Tag check for address 140726619485599, I am cpu0_DTLB
Address is a hit in cpu0_DTLB
Tag check for address 1109400, I am cpu0_L1D
Address is a hit in cpu0_L1D
Tag check for address 54514180, I am cpu0_DTLB
Address is a hit in cpu0_DTLB
Tag check for address 1118304, I am cpu0_L1D
Address is a hit in cpu0_L1D
Tag check for address 1136031, I am cpu0_L1D
Address is a hit in cpu0_L1D
Tag check for address 140726619485592, I am cpu0_DTLB
Address is a hit in cpu0_DTLB
Tag check for address 1098244, I am cpu0_L1D
Address is a hit in cpu0_L1D
Tag check for address 140726619485592, I am cpu0_DTLB
Address is a hit in cpu0_DTLB
Tag check for address 1098248, I am cpu0_L1D
Address is a hit in cpu0_L1D
Tag check for address 8216088, I am cpu0_DTLB
Address is a hit in cpu0_DTLB
Tag check for address 1136024, I am cpu0_L1D
Address is a hit in cpu0_L1D
Tag check for address 53912368, I am cpu0_DTLB
Address is a hit in cpu0_DTLB
Tag check for address 1136024, I am cpu0_L1D
Address is a hit in cpu0_L1D
Tag check for address 1130008, I am cpu0_L1D
Address is a hit in cpu0_L1D
Tag check for address 8215840, I am cpu0_DTLB
Address is a hit in cpu0_DTLB
Tag check for address 1102640, I am cpu0_L1D
Address is a hit in cpu0_L1D
Tag check for address 54513860, I am cpu0_DTLB
Address is a hit in cpu0_DTLB
Tag check for address 1129760, I am cpu0_L1D
Address is a hit in cpu0_L1D
Tag check for address 1102644, I am cpu0_L1D
Address is a hit in cpu0_L1D
Tag check for address 53912360, I am cpu0_DTLB
Address is a hit in cpu0_DTLB
Tag check for address 1097924, I am cpu0_L1D
Address is a hit in cpu0_L1D
Tag check for address 1102632, I am cpu0_L1D
Address is a hit in cpu0_L1D
Tag check for address 8217360, I am cpu0_DTLB
Address is a hit in cpu0_DTLB
Tag check for address 1098257, I am cpu0_L1D
Address is a hit in cpu0_L1D
Tag check for address 54514194, I am cpu0_DTLB
Address is a hit in cpu0_DTLB
Tag check for address 1118992, I am cpu0_L1D
Address is a hit in cpu0_L1D
Tag check for address 53912360, I am cpu0_DTLB
Address is a hit in cpu0_DTLB
Tag check for address 1098258, I am cpu0_L1D
Address is a hit in cpu0_L1D
Tag check for address 53912376, I am cpu0_DTLB
Address is a hit in cpu0_DTLB
Tag check for address 1102632, I am cpu0_L1D
Address is a hit in cpu0_L1D
Tag check for address 1102656, I am cpu0_L1D
Address is a hit in cpu0_L1D
Tag check for address 140726619485568, I am cpu0_DTLB
Address is a hit in cpu0_DTLB
Tag check for address 54514198, I am cpu0_DTLB
Address is a hit in cpu0_DTLB
Tag check for address 1102648, I am cpu0_L1D
Address is a hit in cpu0_L1D
Tag check for address 140726619485568, I am cpu0_DTLB
Address is a hit in cpu0_DTLB
Tag check for address 54514197, I am cpu0_DTLB
Address is a hit in cpu0_DTLB
Tag check for address 1136000, I am cpu0_L1D
Address is a hit in cpu0_L1D
Tag check for address 1098262, I am cpu0_L1D
Address is a hit in cpu0_L1D
Tag check for address 1136000, I am cpu0_L1D
Address is a hit in cpu0_L1D
Tag check for address 1098261, I am cpu0_L1D
Address is a hit in cpu0_L1D
Tag check for address 5697064, I am cpu0_DTLB
Address is a hit in cpu0_DTLB
Tag check for address 140726619485684, I am cpu0_DTLB
Address is a hit in cpu0_DTLB
Tag check for address 1109544, I am cpu0_L1D
Address is a hit in cpu0_L1D
Tag check for address 1136116, I am cpu0_L1D
Address is a hit in cpu0_L1D
Tag check for address 54513860, I am cpu0_DTLB
Address is a hit in cpu0_DTLB
Simulation finished CPU 0 instructions: 5001 cycles: 3594 cumulative IPC: 1.391 (Simulation time: 00 hr 00 min 03 sec)
Simulation complete CPU 0 instructions: 5001 cycles: 3594 cumulative IPC: 1.391 (Simulation time: 00 hr 00 min 03 sec)

ChampSim completed all CPUs

=== Simulation ===
CPU 0 runs ../traces/400.perlbench-41B.champsimtrace.xz
Region of Interest Statistics

CPU 0 cumulative IPC: 1.391 instructions: 5001 cycles: 3594
CPU 0 Branch Prediction Accuracy: 93.54% MPKI: 11.2 Average ROB Occupancy at Mispredict: 37.45
Branch type MPKI
BRANCH_DIRECT_JUMP: 0.4
BRANCH_INDIRECT: 4.2
BRANCH_CONDITIONAL: 6.4
BRANCH_DIRECT_CALL: 0
BRANCH_INDIRECT_CALL: 0
BRANCH_RETURN: 0.2

LLC TOTAL        ACCESS:         13 HIT:          0 MISS:         13
LLC LOAD         ACCESS:         13 HIT:          0 MISS:         13
LLC RFO          ACCESS:          0 HIT:          0 MISS:          0
LLC PREFETCH     ACCESS:          0 HIT:          0 MISS:          0
LLC WRITE        ACCESS:          0 HIT:          0 MISS:          0
LLC TRANSLATION  ACCESS:          0 HIT:          0 MISS:          0
LLC PREFETCH REQUESTED:          0 ISSUED:          0 USEFUL:          0 USELESS:          0
LLC AVERAGE MISS LATENCY: 118.5 cycles
cpu0_DTLB TOTAL        ACCESS:       1288 HIT:       1288 MISS:          0
cpu0_DTLB LOAD         ACCESS:       1288 HIT:       1288 MISS:          0
cpu0_DTLB RFO          ACCESS:          0 HIT:          0 MISS:          0
cpu0_DTLB PREFETCH     ACCESS:          0 HIT:          0 MISS:          0
cpu0_DTLB WRITE        ACCESS:          0 HIT:          0 MISS:          0
cpu0_DTLB TRANSLATION  ACCESS:          0 HIT:          0 MISS:          0
cpu0_DTLB PREFETCH REQUESTED:          0 ISSUED:          0 USEFUL:          0 USELESS:          0
cpu0_DTLB AVERAGE MISS LATENCY: -nan cycles
cpu0_ITLB TOTAL        ACCESS:          8 HIT:          8 MISS:          0
cpu0_ITLB LOAD         ACCESS:          8 HIT:          8 MISS:          0
cpu0_ITLB RFO          ACCESS:          0 HIT:          0 MISS:          0
cpu0_ITLB PREFETCH     ACCESS:          0 HIT:          0 MISS:          0
cpu0_ITLB WRITE        ACCESS:          0 HIT:          0 MISS:          0
cpu0_ITLB TRANSLATION  ACCESS:          0 HIT:          0 MISS:          0
cpu0_ITLB PREFETCH REQUESTED:          0 ISSUED:          0 USEFUL:          0 USELESS:          0
cpu0_ITLB AVERAGE MISS LATENCY: -nan cycles
cpu0_L1D TOTAL        ACCESS:       1608 HIT:       1575 MISS:         33
cpu0_L1D LOAD         ACCESS:       1018 HIT:        985 MISS:         33
cpu0_L1D RFO          ACCESS:          0 HIT:          0 MISS:          0
cpu0_L1D PREFETCH     ACCESS:          0 HIT:          0 MISS:          0
cpu0_L1D WRITE        ACCESS:        590 HIT:        590 MISS:          0
cpu0_L1D TRANSLATION  ACCESS:          0 HIT:          0 MISS:          0
cpu0_L1D PREFETCH REQUESTED:          0 ISSUED:          0 USEFUL:          0 USELESS:          0
cpu0_L1D AVERAGE MISS LATENCY: 32.21 cycles
cpu0_L1I TOTAL        ACCESS:          9 HIT:          3 MISS:          6
cpu0_L1I LOAD         ACCESS:          9 HIT:          3 MISS:          6
cpu0_L1I RFO          ACCESS:          0 HIT:          0 MISS:          0
cpu0_L1I PREFETCH     ACCESS:          0 HIT:          0 MISS:          0
cpu0_L1I WRITE        ACCESS:          0 HIT:          0 MISS:          0
cpu0_L1I TRANSLATION  ACCESS:          0 HIT:          0 MISS:          0
cpu0_L1I PREFETCH REQUESTED:          0 ISSUED:          0 USEFUL:          0 USELESS:          0
cpu0_L1I AVERAGE MISS LATENCY: 130.5 cycles
cpu0_L2C TOTAL        ACCESS:         13 HIT:          0 MISS:         13
cpu0_L2C LOAD         ACCESS:         13 HIT:          0 MISS:         13
cpu0_L2C RFO          ACCESS:          0 HIT:          0 MISS:          0
cpu0_L2C PREFETCH     ACCESS:          0 HIT:          0 MISS:          0
cpu0_L2C WRITE        ACCESS:          0 HIT:          0 MISS:          0
cpu0_L2C TRANSLATION  ACCESS:          0 HIT:          0 MISS:          0
cpu0_L2C PREFETCH REQUESTED:          0 ISSUED:          0 USEFUL:          0 USELESS:          0
cpu0_L2C AVERAGE MISS LATENCY: 139.5 cycles
cpu0_STLB TOTAL        ACCESS:          0 HIT:          0 MISS:          0
cpu0_STLB LOAD         ACCESS:          0 HIT:          0 MISS:          0
cpu0_STLB RFO          ACCESS:          0 HIT:          0 MISS:          0
cpu0_STLB PREFETCH     ACCESS:          0 HIT:          0 MISS:          0
cpu0_STLB WRITE        ACCESS:          0 HIT:          0 MISS:          0
cpu0_STLB TRANSLATION  ACCESS:          0 HIT:          0 MISS:          0
cpu0_STLB PREFETCH REQUESTED:          0 ISSUED:          0 USEFUL:          0 USELESS:          0
cpu0_STLB AVERAGE MISS LATENCY: -nan cycles

DRAM Statistics

Channel 0 RQ ROW_BUFFER_HIT:          6
  ROW_BUFFER_MISS:          7
 AVG DBUS CONGESTED CYCLE: 4
WQ ROW_BUFFER_HIT: Channel 0 
  ROW_BUFFER_MISS:          0
  FULL:          0
